2018-05-30 11:30:37,597  INFO Gbl:59 JVM: 1.8.0_121; Oracle Corporation; mixed mode; 64-bit
2018-05-30 11:30:37,598  INFO Gbl:63 OS: Linux; 3.10.0-862.2.3.el7.x86_64; amd64
2018-05-30 11:30:37,598  INFO Gbl:66 CPU cores: 32
2018-05-30 11:30:37,598  INFO Gbl:67 max. Memory: 622.5MB (652738560B)
2018-05-30 11:30:37,598  INFO Gbl:105 MATSim-Build: rc8f4359457529bb9610f7c818afc33a0aebc619c (2018-05-30 11:29:22)
2018-05-30 11:30:37,598  INFO ControlerListenerManagerImpl:107 calling notifyStartup on org.matsim.counts.CountsControlerListener
2018-05-30 11:30:37,598  INFO ControlerListenerManagerImpl:107 calling notifyStartup on org.matsim.analysis.ModeStatsControlerListener
2018-05-30 11:30:37,599 DEBUG NetworkRoutingProvider:75 requesting network routing module with routingMode=car;	mode=car
2018-05-30 11:30:37,599  INFO NetworkImpl:167  node # 1
2018-05-30 11:30:37,599  INFO NetworkImpl:167  node # 4
2018-05-30 11:30:37,599  INFO NetworkImpl:163  link # 1
2018-05-30 11:30:37,599  INFO NetworkImpl:163  link # 4
2018-05-30 11:30:37,599  INFO NetworkImpl:163  link # 16
2018-05-30 11:30:37,600  INFO ControlerListenerManagerImpl:107 calling notifyStartup on org.matsim.analysis.ScoreStatsControlerListener
2018-05-30 11:30:37,600  INFO ControlerListenerManagerImpl:107 calling notifyStartup on org.matsim.withinday.controller.ExampleWithinDayController
2018-05-30 11:30:37,603  INFO ControlerListenerManagerImpl:107 calling notifyStartup on org.matsim.withinday.controller.WithinDayControlerListener
2018-05-30 11:30:37,604  INFO WithinDayControlerListener:152 Initialize WithinDayEngine
2018-05-30 11:30:37,604  INFO ControlerListenerManagerImpl:110 all ControlerStartupListeners called.
2018-05-30 11:30:37,604  INFO ControlerUtils:58 config dump before iterations start
2018-05-30 11:30:37,604  INFO Config:561 setting context to [file:/root/workspace/matsim-org/matsim/385585169/matsim/]
2018-05-30 11:30:37,607  INFO ControlerUtils:62 

<?xml version="1.0" encoding="UTF-8"?>
<!DOCTYPE config SYSTEM "http://www.matsim.org/files/dtd/config_v2.dtd">
<config>
<!-- ====================================================================== -->
	<module name="JDEQSim" >
		<param name="carSize" value="7.5" />
		<param name="endTime" value="undefined" />
		<param name="flowCapacityFactor" value="1.0" />
		<param name="gapTravelSpeed" value="15.0" />
		<param name="minimumInFlowCapacity" value="1800.0" />
		<param name="squeezeTime" value="1800.0" />
		<param name="storageCapacityFactor" value="1.0" />
	</module>
<!-- ====================================================================== -->
	<module name="TimeAllocationMutator" >
		<!-- Default:true; Defines whether time mutation changes an activity's duration. -->
		<param name="mutationAffectsDuration" value="true" />
		<!-- Default:1800.0; Defines how many seconds a time mutation can maximally shift a time. -->
		<param name="mutationRange" value="1800.0" />
		<!-- false; Use individual settings for each subpopulation. If enabled but no settings are found, regular settings are uses as fallback. -->
		<param name="useIndividualSettingsForSubpopulations" value="false" />
	</module>
<!-- ====================================================================== -->
<!-- ====================================================================== -->
	<module name="changeMode" >
		<param name="ignoreCarAvailability" value="true" />
		<param name="modes" value="car,pt" />
	</module>
<!-- ====================================================================== -->
	<module name="controler" >
		<!-- Sets whether graphs showing some analyses should automatically be generated during the simulation. The generation of graphs usually takes a small amount of time that does not have any weight in big simulations, but add a significant overhead in smaller runs or in test cases where the graphical output is not even requested. -->
		<param name="createGraphs" value="true" />
		<!-- true if at the end of a run, plans, network, config etc should be dumped to a file -->
		<param name="dumpDataAtEnd" value="true" />
		<!-- Default=false. If enabled, the router takes travel times needed for turning moves into account. Cannot be used if the (Fast)AStarLandmarks routing or TravelTimeCalculator.separateModes is enabled. -->
		<param name="enableLinkToLinkRouting" value="false" />
		<!-- Default=xml; Specifies the file format for writing events. Currently supported: xml.
		Multiple values can be specified separated by commas (','). -->
		<param name="eventsFileFormat" value="xml" />
		<!-- Default=0;  -->
		<param name="firstIteration" value="0" />
		<!-- Default=1000;  -->
		<param name="lastIteration" value="1" />
		<!-- Defines which mobility simulation will be used. Currently supported: qsim JDEQSim 
		Depending on the chosen mobsim, you'll have to add additional config modules to configure the corresponding mobsim.
		For 'qsim', add a module 'qsim' to the config. -->
		<param name="mobsim" value="qsim" />
		<param name="outputDirectory" value="test/output/org/matsim/withinday/controller/ExampleWithinDayControllerTest/testRun/" />
		<!-- Possible values: failIfDirectoryExists, overwriteExistingFiles, deleteDirectoryIfExists -->
		<param name="overwriteFiles" value="failIfDirectoryExists" />
		<!-- The type of routing (least cost path) algorithm used, may have the values: Dijkstra, FastDijkstra, AStarLandmarks or FastAStarLandmarks -->
		<param name="routingAlgorithmType" value="Dijkstra" />
		<!-- An identifier for the current run which is used as prefix for output files and mentioned in output xml files etc. -->
		<param name="runId" value="null" />
		<!-- Comma-separated list of visualizer output file formats. `transims', `googleearth', and `otfvis'. -->
		<param name="snapshotFormat" value="" />
		<!-- iterationNumber % writeEventsInterval == 0 defines in which iterations events are written to a file. `0' disables events writing completely. -->
		<param name="writeEventsInterval" value="10" />
		<!-- iterationNumber % writePlansInterval == 0 defines (hopefully) in which iterations plans are written to a file. `0' disables plans writing completely.  Some plans in early iterations are always written -->
		<param name="writePlansInterval" value="10" />
		<!-- iterationNumber % writeSnapshotsInterval == 0 defines in which iterations snapshots are written to a file. `0' disables snapshots writing completely -->
		<param name="writeSnapshotsInterval" value="1" />
	</module>
<!-- ====================================================================== -->
	<module name="counts" >
		<!-- Transport modes that will be respected for the counts comparison. 'car' is default, which includes also bussed from the pt simulation module. Use this parameter in combination with 'filterModes' = true! -->
		<param name="analyzedModes" value="car" />
		<!-- Specifies over how many iterations the link volumes should be averaged that are used for the counts comparison. Use 1 or 0 to only use the link volumes of a single iteration. This values cannot be larger than the value specified for writeCountsInterval -->
		<param name="averageCountsOverIterations" value="5" />
		<!-- factor by which to re-scale the simulated values.  necessary when simulation runs with something different from 100%.  needs to be adapted manually -->
		<param name="countsScaleFactor" value="1.0" />
		<!-- distance to distanceFilterCenterNode to include counting stations. The unit of distance is the Euclidean distance implied by the coordinate system -->
		<param name="distanceFilter" value="null" />
		<!-- node id for center node of distance filter -->
		<param name="distanceFilterCenterNode" value="null" />
		<!-- If true, link counts from legs performed on modes not included in the 'analyzedModes' parameter are ignored. -->
		<param name="filterModes" value="false" />
		<!-- The Coordinates Reference System in which the coordinates are expressed in the input file. At import, the coordinates will be converted to the coordinate system defined in "global", and willbe converted back at export. If not specified, no conversion happens. -->
		<param name="inputCRS" value="null" />
		<!-- input file name to counts package -->
		<param name="inputCountsFile" value="null" />
		<!-- possible values: `html', `kml', `txt', `all' -->
		<param name="outputformat" value="txt" />
		<!-- Specifies how often the counts comparison should be calculated and written. -->
		<param name="writeCountsInterval" value="10" />
	</module>
<!-- ====================================================================== -->
	<module name="facilities" >
		<!-- If set to 'true', empty activity option will be created. -->
		<param name="addEmptyActivityOption" value="false" />
		<!-- Default is 'true'. In the case that a facility has no link assigned, the ActivityFacility can be assigned to the closest link. If there should be only one ActivityFacility per link and if no link-assignment should be done, set to 'false'.This will create a new ActivityFacility at the coordinate and the facility will not be assigned to a link. -->
		<param name="assigningLinksToFacilitiesIfMissing" value="true" />
		<!-- If set to 'true', opening time will be assigned to activity facilities from ActivityParams. Default is false. This will NOT override option 'addEmptyActivityOption'. -->
		<param name="assigningOpeningTime" value="false" />
		<!-- This defines how facilities should be created. Possible values: none fromFile setInScenario onePerActivityLocationInPlansFile  -->
		<param name="facilitiesSource" value="fromFile" />
		<!-- A prefix to be used in activityFacility id. -->
		<param name="idPrefix" value="" />
		<!-- The Coordinates Reference System in which the coordinates are expressed in the input file. At import, the coordinates will be converted to the coordinate system defined in "global", and willbe converted back at export. If not specified, no conversion happens. -->
		<param name="inputCRS" value="null" />
		<param name="inputFacilitiesFile" value="facilities.xml" />
		<param name="inputFacilityAttributesFile" value="null" />
		<!-- Sets whether all activities on a link should be collected within one ActivityFacility. Default is 'true'. If set to 'false', for each coordinate found in the population's activities a separate ActivityFacility will be created. -->
		<param name="oneFacilityPerLink" value="true" />
		<!-- If set to 'true' (which is the default), the link and coordinate attributes are replaced by null reference in the activities, as this information is now available via the facility. -->
		<param name="removingLinksAndCoordinates" value="true" />
	</module>
<!-- ====================================================================== -->
	<module name="global" >
		<param name="coordinateSystem" value="Atlantis" />
		<param name="insistingOnDeprecatedConfigVersion" value="true" />
		<!-- "global" number of threads.  This number is used, e.g., for replanning, but NOT in the mobsim.  This can typically be set to as many cores as you have available, or possibly even slightly more. -->
		<param name="numberOfThreads" value="2" />
		<param name="randomSeed" value="4711" />
	</module>
<!-- ====================================================================== -->
	<module name="households" >
		<param name="inputFile" value="null" />
		<param name="inputHouseholdAttributesFile" value="null" />
	</module>
<!-- ====================================================================== -->
	<module name="linkStats" >
		<!-- Specifies over how many iterations the link volumes should be averaged that are used for the link statistics. Use 1 or 0 to only use the link volumes of a single iteration. This values cannot be larger than the value specified for writeLinkStatsInterval -->
		<param name="averageLinkStatsOverIterations" value="5" />
		<!-- Specifies how often the link stats should be calculated and written. Use 0 to disable the generation of link stats. -->
		<param name="writeLinkStatsInterval" value="10" />
	</module>
<!-- ====================================================================== -->
	<module name="network" >
		<!-- The Coordinates Reference System in which the coordinates are expressed in the input file. At import, the coordinates will be converted to the coordinate system defined in "global", and willbe converted back at export. If not specified, no conversion happens. -->
		<param name="inputCRS" value="null" />
		<param name="inputChangeEventsFile" value="null" />
		<param name="inputNetworkFile" value="network.xml" />
		<param name="laneDefinitionsFile" value="null" />
		<param name="timeVariantNetwork" value="false" />
	</module>
<!-- ====================================================================== -->
	<module name="parallelEventHandling" >
		<!-- Estimated number of events during mobsim run. An optional optimization hint for the framework. -->
		<param name="estimatedNumberOfEvents" value="null" />
		<!-- Number of threads for parallel events handler. _null_ means the framework decides by itself. 0 is currently not possible. -->
		<param name="numberOfThreads" value="null" />
		<!-- If enabled, each event handler is assigned to its own thread. Note that enabling this feature disabled the numberOfThreads option! This feature is still experimental! -->
		<param name="oneThreadPerHandler" value="false" />
		<!-- If enabled, it is ensured that all events that are created during a time step of the mobility simulation are processed before the next time step is simulated. E.g. neccessary when within-day replanning is used. -->
		<param name="synchronizeOnSimSteps" value="true" />
	</module>
<!-- ====================================================================== -->
	<module name="planCalcScore" >
		<!-- logit model scale parameter. default: 1.  Has name and default value for historical reasons (see Bryan Raney's phd thesis). -->
		<param name="BrainExpBeta" value="2.0" />
		<param name="PathSizeLogitBeta" value="1.0" />
		<!-- fraction of iterations at which MSA score averaging is started. The matsim theory department suggests to use this together with switching off choice set innovation (where a similar switch exists), but it has not been tested yet. -->
		<param name="fractionOfIterationsToStartScoreMSA" value="null" />
		<!-- new_score = (1-learningRate)*old_score + learningRate * score_from_mobsim.  learning rates close to zero emulate score averaging, but slow down initial convergence -->
		<param name="learningRate" value="1.0" />
		<!-- There used to be a plateau between duration=0 and duration=zeroUtilityDuration. This caused durations to evolve to zero once they were below zeroUtilityDuration, causing problems.  Only use this switch if you need to be backwards compatible with some old results.  (changed nov'13) -->
		<param name="usingOldScoringBelowZeroUtilityDuration" value="false" />
		<!-- write a plans file in each iteration directory which contains what each agent actually did, and the score it received. -->
		<param name="writeExperiencedPlans" value="false" />
		<parameterset type="scoringParameters" >
			<param name="earlyDeparture" value="-0.0" />
			<param name="lateArrival" value="-18.0" />
			<param name="marginalUtilityOfMoney" value="1.0" />
			<param name="performing" value="6.0" />
			<param name="subpopulation" value="null" />
			<param name="utilityOfLineSwitch" value="-1.0" />
			<param name="waiting" value="-0.0" />
			<param name="waitingPt" value="-6.0" />
			<parameterset type="activityParams" >
				<param name="activityType" value="dummy" />
				<param name="closingTime" value="undefined" />
				<param name="earliestEndTime" value="undefined" />
				<param name="latestStartTime" value="undefined" />
				<param name="minimalDuration" value="undefined" />
				<param name="openingTime" value="undefined" />
				<param name="priority" value="1.0" />
				<param name="scoringThisActivityAtAll" value="false" />
				<!-- typical duration of activity.  needs to be defined and non-zero.  in sec. -->
				<param name="typicalDuration" value="02:00:00" />
				<!-- method to compute score at typical duration.  Options: | uniform | relative | Use uniform for backwards compatibility (all activities same score; higher proba to drop long acts). -->
				<param name="typicalDurationScoreComputation" value="relative" />
			</parameterset>
			<parameterset type="activityParams" >
				<param name="activityType" value="car interaction" />
				<param name="closingTime" value="undefined" />
				<param name="earliestEndTime" value="undefined" />
				<param name="latestStartTime" value="undefined" />
				<param name="minimalDuration" value="undefined" />
				<param name="openingTime" value="undefined" />
				<param name="priority" value="1.0" />
				<param name="scoringThisActivityAtAll" value="false" />
				<!-- typical duration of activity.  needs to be defined and non-zero.  in sec. -->
				<param name="typicalDuration" value="undefined" />
				<!-- method to compute score at typical duration.  Options: | uniform | relative | Use uniform for backwards compatibility (all activities same score; higher proba to drop long acts). -->
				<param name="typicalDurationScoreComputation" value="relative" />
			</parameterset>
			<parameterset type="activityParams" >
				<param name="activityType" value="pt interaction" />
				<param name="closingTime" value="undefined" />
				<param name="earliestEndTime" value="undefined" />
				<param name="latestStartTime" value="undefined" />
				<param name="minimalDuration" value="undefined" />
				<param name="openingTime" value="undefined" />
				<param name="priority" value="1.0" />
				<param name="scoringThisActivityAtAll" value="false" />
				<!-- typical duration of activity.  needs to be defined and non-zero.  in sec. -->
				<param name="typicalDuration" value="undefined" />
				<!-- method to compute score at typical duration.  Options: | uniform | relative | Use uniform for backwards compatibility (all activities same score; higher proba to drop long acts). -->
				<param name="typicalDurationScoreComputation" value="relative" />
			</parameterset>
			<parameterset type="activityParams" >
				<param name="activityType" value="bike interaction" />
				<param name="closingTime" value="undefined" />
				<param name="earliestEndTime" value="undefined" />
				<param name="latestStartTime" value="undefined" />
				<param name="minimalDuration" value="undefined" />
				<param name="openingTime" value="undefined" />
				<param name="priority" value="1.0" />
				<param name="scoringThisActivityAtAll" value="false" />
				<!-- typical duration of activity.  needs to be defined and non-zero.  in sec. -->
				<param name="typicalDuration" value="undefined" />
				<!-- method to compute score at typical duration.  Options: | uniform | relative | Use uniform for backwards compatibility (all activities same score; higher proba to drop long acts). -->
				<param name="typicalDurationScoreComputation" value="relative" />
			</parameterset>
			<parameterset type="activityParams" >
				<param name="activityType" value="other interaction" />
				<param name="closingTime" value="undefined" />
				<param name="earliestEndTime" value="undefined" />
				<param name="latestStartTime" value="undefined" />
				<param name="minimalDuration" value="undefined" />
				<param name="openingTime" value="undefined" />
				<param name="priority" value="1.0" />
				<param name="scoringThisActivityAtAll" value="false" />
				<!-- typical duration of activity.  needs to be defined and non-zero.  in sec. -->
				<param name="typicalDuration" value="undefined" />
				<!-- method to compute score at typical duration.  Options: | uniform | relative | Use uniform for backwards compatibility (all activities same score; higher proba to drop long acts). -->
				<param name="typicalDurationScoreComputation" value="relative" />
			</parameterset>
			<parameterset type="activityParams" >
				<param name="activityType" value="walk interaction" />
				<param name="closingTime" value="undefined" />
				<param name="earliestEndTime" value="undefined" />
				<param name="latestStartTime" value="undefined" />
				<param name="minimalDuration" value="undefined" />
				<param name="openingTime" value="undefined" />
				<param name="priority" value="1.0" />
				<param name="scoringThisActivityAtAll" value="false" />
				<!-- typical duration of activity.  needs to be defined and non-zero.  in sec. -->
				<param name="typicalDuration" value="undefined" />
				<!-- method to compute score at typical duration.  Options: | uniform | relative | Use uniform for backwards compatibility (all activities same score; higher proba to drop long acts). -->
				<param name="typicalDurationScoreComputation" value="relative" />
			</parameterset>
			<parameterset type="activityParams" >
				<param name="activityType" value="h" />
				<param name="closingTime" value="undefined" />
				<param name="earliestEndTime" value="undefined" />
				<param name="latestStartTime" value="undefined" />
				<param name="minimalDuration" value="08:00:00" />
				<param name="openingTime" value="undefined" />
				<param name="priority" value="1.0" />
				<param name="scoringThisActivityAtAll" value="true" />
				<!-- typical duration of activity.  needs to be defined and non-zero.  in sec. -->
				<param name="typicalDuration" value="12:00:00" />
				<!-- method to compute score at typical duration.  Options: | uniform | relative | Use uniform for backwards compatibility (all activities same score; higher proba to drop long acts). -->
				<param name="typicalDurationScoreComputation" value="relative" />
			</parameterset>
			<parameterset type="activityParams" >
				<param name="activityType" value="w" />
				<param name="closingTime" value="18:00:00" />
				<param name="earliestEndTime" value="undefined" />
				<param name="latestStartTime" value="09:00:00" />
				<param name="minimalDuration" value="06:00:00" />
				<param name="openingTime" value="07:00:00" />
				<param name="priority" value="1.0" />
				<param name="scoringThisActivityAtAll" value="true" />
				<!-- typical duration of activity.  needs to be defined and non-zero.  in sec. -->
				<param name="typicalDuration" value="08:00:00" />
				<!-- method to compute score at typical duration.  Options: | uniform | relative | Use uniform for backwards compatibility (all activities same score; higher proba to drop long acts). -->
				<param name="typicalDurationScoreComputation" value="relative" />
			</parameterset>
			<parameterset type="modeParams" >
				<!-- [utils] alternative-specific constant.  no guarantee that this is used anywhere. default=0 to be backwards compatible for the time being -->
				<param name="constant" value="0.0" />
				<!-- [utils/m] utility of walking per m, normally negative.  this is on top of the time (dis)utility. -->
				<param name="marginalUtilityOfDistance_util_m" value="0.0" />
				<!-- [utils/hr] additional marginal utility of traveling.  normally negative.  this comes on top of the opportunity cost of time -->
				<param name="marginalUtilityOfTraveling_util_hr" value="-6.0" />
				<param name="mode" value="car" />
				<!-- [unit_of_money/m] conversion of distance into money. Normally negative. -->
				<param name="monetaryDistanceRate" value="0.0" />
			</parameterset>
			<parameterset type="modeParams" >
				<!-- [utils] alternative-specific constant.  no guarantee that this is used anywhere. default=0 to be backwards compatible for the time being -->
				<param name="constant" value="0.0" />
				<!-- [utils/m] utility of walking per m, normally negative.  this is on top of the time (dis)utility. -->
				<param name="marginalUtilityOfDistance_util_m" value="0.0" />
				<!-- [utils/hr] additional marginal utility of traveling.  normally negative.  this comes on top of the opportunity cost of time -->
				<param name="marginalUtilityOfTraveling_util_hr" value="-6.0" />
				<param name="mode" value="pt" />
				<!-- [unit_of_money/m] conversion of distance into money. Normally negative. -->
				<param name="monetaryDistanceRate" value="0.0" />
			</parameterset>
			<parameterset type="modeParams" >
				<!-- [utils] alternative-specific constant.  no guarantee that this is used anywhere. default=0 to be backwards compatible for the time being -->
				<param name="constant" value="0.0" />
				<!-- [utils/m] utility of walking per m, normally negative.  this is on top of the time (dis)utility. -->
				<param name="marginalUtilityOfDistance_util_m" value="0.0" />
				<!-- [utils/hr] additional marginal utility of traveling.  normally negative.  this comes on top of the opportunity cost of time -->
				<param name="marginalUtilityOfTraveling_util_hr" value="-6.0" />
				<param name="mode" value="walk" />
				<!-- [unit_of_money/m] conversion of distance into money. Normally negative. -->
				<param name="monetaryDistanceRate" value="0.0" />
			</parameterset>
			<parameterset type="modeParams" >
				<!-- [utils] alternative-specific constant.  no guarantee that this is used anywhere. default=0 to be backwards compatible for the time being -->
				<param name="constant" value="0.0" />
				<!-- [utils/m] utility of walking per m, normally negative.  this is on top of the time (dis)utility. -->
				<param name="marginalUtilityOfDistance_util_m" value="0.0" />
				<!-- [utils/hr] additional marginal utility of traveling.  normally negative.  this comes on top of the opportunity cost of time -->
				<param name="marginalUtilityOfTraveling_util_hr" value="-6.0" />
				<param name="mode" value="bike" />
				<!-- [unit_of_money/m] conversion of distance into money. Normally negative. -->
				<param name="monetaryDistanceRate" value="0.0" />
			</parameterset>
			<parameterset type="modeParams" >
				<!-- [utils] alternative-specific constant.  no guarantee that this is used anywhere. default=0 to be backwards compatible for the time being -->
				<param name="constant" value="0.0" />
				<!-- [utils/m] utility of walking per m, normally negative.  this is on top of the time (dis)utility. -->
				<param name="marginalUtilityOfDistance_util_m" value="0.0" />
				<!-- [utils/hr] additional marginal utility of traveling.  normally negative.  this comes on top of the opportunity cost of time -->
				<param name="marginalUtilityOfTraveling_util_hr" value="-6.0" />
				<param name="mode" value="ride" />
				<!-- [unit_of_money/m] conversion of distance into money. Normally negative. -->
				<param name="monetaryDistanceRate" value="0.0" />
			</parameterset>
			<parameterset type="modeParams" >
				<!-- [utils] alternative-specific constant.  no guarantee that this is used anywhere. default=0 to be backwards compatible for the time being -->
				<param name="constant" value="0.0" />
				<!-- [utils/m] utility of walking per m, normally negative.  this is on top of the time (dis)utility. -->
				<param name="marginalUtilityOfDistance_util_m" value="0.0" />
				<!-- [utils/hr] additional marginal utility of traveling.  normally negative.  this comes on top of the opportunity cost of time -->
				<param name="marginalUtilityOfTraveling_util_hr" value="-6.0" />
				<param name="mode" value="other" />
				<!-- [unit_of_money/m] conversion of distance into money. Normally negative. -->
				<param name="monetaryDistanceRate" value="0.0" />
			</parameterset>
		</parameterset>
	</module>
<!-- ====================================================================== -->
	<module name="plans" >
		<!-- String: minOfDurationAndEndTime tryEndTimeThenDuration endTimeOnly. Anything besides minOfDurationAndEndTime will internally use a different (simpler) version of the TimeAllocationMutator. -->
		<param name="activityDurationInterpretation" value="tryEndTimeThenDuration" />
		<!-- The Coordinates Reference System in which the coordinates are expressed in the input file. At import, the coordinates will be converted to the coordinate system defined in "global", and willbe converted back at export. If not specified, no conversion happens. -->
		<param name="inputCRS" value="null" />
		<!-- Path to a file containing person attributes (required file format: ObjectAttributes). -->
		<param name="inputPersonAttributesFile" value="null" />
		<param name="inputPlansFile" value="plans100.xml" />
		<!-- Defines how routes are stored in memory. Currently supported: LinkNetworkRoute, CompressedNetworkRoute. -->
		<param name="networkRouteType" value="LinkNetworkRoute" />
		<!-- (not tested) will remove plan attributes that are presumably not used, such as activityStartTime. default=false -->
		<param name="removingUnnecessaryPlanAttributes" value="false" />
		<!-- Name of the (Object)Attribute defining the subpopulation to which pertains a Person (as freight, through traffic, etc.). The attribute must be of String type.  Change away from default only in desperate situations. -->
		<param name="subpopulationAttributeName" value="subpopulation" />
	</module>
<!-- ====================================================================== -->
	<module name="planscalcroute" >
		<!-- All the modes for which the router is supposed to generate network routes (like car) -->
		<param name="networkModes" value="car" />
		<parameterset type="teleportedModeParameters" >
			<param name="beelineDistanceFactor" value="1.3" />
			<param name="mode" value="bike" />
			<!-- Free-speed factor for a teleported mode. Travel time = teleportedModeFreespeedFactor * <freespeed car travel time>. Insert a line like this for every such mode. Please do not set teleportedModeFreespeedFactor as well as teleportedModeSpeed for the same mode, but if you do, +teleportedModeFreespeedFactor wins over teleportedModeSpeed. -->
			<param name="teleportedModeFreespeedFactor" value="null" />
			<!-- Speed for a teleported mode. Travel time = (<beeline distance> * beelineDistanceFactor) / teleportedModeSpeed. Insert a line like this for every such mode. -->
			<param name="teleportedModeSpeed" value="4.166666666666667" />
		</parameterset>
		<parameterset type="teleportedModeParameters" >
			<param name="beelineDistanceFactor" value="1.3" />
			<param name="mode" value="walk" />
			<!-- Free-speed factor for a teleported mode. Travel time = teleportedModeFreespeedFactor * <freespeed car travel time>. Insert a line like this for every such mode. Please do not set teleportedModeFreespeedFactor as well as teleportedModeSpeed for the same mode, but if you do, +teleportedModeFreespeedFactor wins over teleportedModeSpeed. -->
			<param name="teleportedModeFreespeedFactor" value="null" />
			<!-- Speed for a teleported mode. Travel time = (<beeline distance> * beelineDistanceFactor) / teleportedModeSpeed. Insert a line like this for every such mode. -->
			<param name="teleportedModeSpeed" value="0.8333333333333333" />
		</parameterset>
		<parameterset type="teleportedModeParameters" >
			<param name="beelineDistanceFactor" value="1.3" />
			<param name="mode" value="access_walk" />
			<!-- Free-speed factor for a teleported mode. Travel time = teleportedModeFreespeedFactor * <freespeed car travel time>. Insert a line like this for every such mode. Please do not set teleportedModeFreespeedFactor as well as teleportedModeSpeed for the same mode, but if you do, +teleportedModeFreespeedFactor wins over teleportedModeSpeed. -->
			<param name="teleportedModeFreespeedFactor" value="null" />
			<!-- Speed for a teleported mode. Travel time = (<beeline distance> * beelineDistanceFactor) / teleportedModeSpeed. Insert a line like this for every such mode. -->
			<param name="teleportedModeSpeed" value="0.8333333333333333" />
		</parameterset>
		<parameterset type="teleportedModeParameters" >
			<param name="beelineDistanceFactor" value="1.3" />
			<param name="mode" value="egress_walk" />
			<!-- Free-speed factor for a teleported mode. Travel time = teleportedModeFreespeedFactor * <freespeed car travel time>. Insert a line like this for every such mode. Please do not set teleportedModeFreespeedFactor as well as teleportedModeSpeed for the same mode, but if you do, +teleportedModeFreespeedFactor wins over teleportedModeSpeed. -->
			<param name="teleportedModeFreespeedFactor" value="null" />
			<!-- Speed for a teleported mode. Travel time = (<beeline distance> * beelineDistanceFactor) / teleportedModeSpeed. Insert a line like this for every such mode. -->
			<param name="teleportedModeSpeed" value="0.8333333333333333" />
		</parameterset>
		<parameterset type="teleportedModeParameters" >
			<param name="beelineDistanceFactor" value="1.3" />
			<param name="mode" value="undefined" />
			<!-- Free-speed factor for a teleported mode. Travel time = teleportedModeFreespeedFactor * <freespeed car travel time>. Insert a line like this for every such mode. Please do not set teleportedModeFreespeedFactor as well as teleportedModeSpeed for the same mode, but if you do, +teleportedModeFreespeedFactor wins over teleportedModeSpeed. -->
			<param name="teleportedModeFreespeedFactor" value="null" />
			<!-- Speed for a teleported mode. Travel time = (<beeline distance> * beelineDistanceFactor) / teleportedModeSpeed. Insert a line like this for every such mode. -->
			<param name="teleportedModeSpeed" value="13.88888888888889" />
		</parameterset>
		<parameterset type="teleportedModeParameters" >
			<param name="beelineDistanceFactor" value="1.3" />
			<param name="mode" value="ride" />
			<!-- Free-speed factor for a teleported mode. Travel time = teleportedModeFreespeedFactor * <freespeed car travel time>. Insert a line like this for every such mode. Please do not set teleportedModeFreespeedFactor as well as teleportedModeSpeed for the same mode, but if you do, +teleportedModeFreespeedFactor wins over teleportedModeSpeed. -->
			<param name="teleportedModeFreespeedFactor" value="1.0" />
			<!-- Speed for a teleported mode. Travel time = (<beeline distance> * beelineDistanceFactor) / teleportedModeSpeed. Insert a line like this for every such mode. -->
			<param name="teleportedModeSpeed" value="null" />
		</parameterset>
		<parameterset type="teleportedModeParameters" >
			<param name="beelineDistanceFactor" value="1.3" />
			<param name="mode" value="pt" />
			<!-- Free-speed factor for a teleported mode. Travel time = teleportedModeFreespeedFactor * <freespeed car travel time>. Insert a line like this for every such mode. Please do not set teleportedModeFreespeedFactor as well as teleportedModeSpeed for the same mode, but if you do, +teleportedModeFreespeedFactor wins over teleportedModeSpeed. -->
			<param name="teleportedModeFreespeedFactor" value="2.0" />
			<!-- Speed for a teleported mode. Travel time = (<beeline distance> * beelineDistanceFactor) / teleportedModeSpeed. Insert a line like this for every such mode. -->
			<param name="teleportedModeSpeed" value="null" />
		</parameterset>
	</module>
<!-- ====================================================================== -->
	<module name="ptCounts" >
		<!-- factor by which to re-scale the simulated values.  necessary when simulation runs with something different from 100%.  needs to be adapted manually -->
		<param name="countsScaleFactor" value="1.0" />
		<!-- distance to distanceFilterCenterNode to include counting stations. The unit of distance is the Euclidean distance implied by the coordinate system -->
		<param name="distanceFilter" value="null" />
		<!-- node id for center node of distance filter -->
		<param name="distanceFilterCenterNode" value="null" />
		<!-- input file containing the alighting (getting off) counts for pt -->
		<param name="inputAlightCountsFile" value="null" />
		<!-- input file containing the boarding (getting on) counts for pt -->
		<param name="inputBoardCountsFile" value="null" />
		<!-- input file containing the occupancy counts for pt -->
		<param name="inputOccupancyCountsFile" value="null" />
		<!-- possible values: `html', `kml', `txt', `all' -->
		<param name="outputformat" value="null" />
		<!-- every how many iterations (starting with 0) counts comparisons are generated -->
		<param name="ptCountsInterval" value="10" />
	</module>
<!-- ====================================================================== -->
	<module name="qsim" >
		<!-- If set to true, creates a vehicle for each person corresponding to every network mode. However, this will be overridden if vehicle source is fromVehiclesData. -->
		<param name="creatingVehiclesForAllNetworkModes" value="true" />
		<param name="endTime" value="00:00:00" />
		<param name="flowCapacityFactor" value="1.0" />
		<!-- decides if waiting vehicles enter the network after or before the already driving vehicles were moved. Default: false -->
		<param name="insertingWaitingVehiclesBeforeDrivingVehicles" value="false" />
		<!-- If link dynamics is set as SeepageQ, set to false if all seep modes should perform seepage. Default is true (better option). -->
		<param name="isRestrictingSeepage" value="true" />
		<!-- If link dynamics is set as SeepageQ, set to true if seep mode do not consumes any space on the link. Default is false. -->
		<param name="isSeepModeStorageFree" value="false" />
		<!-- default: FIFO; options: FIFO PassingQ SeepageQ -->
		<param name="linkDynamics" value="FIFO" />
		<!-- The (initial) width of the links of the network. Use positive floating point values. This is used only for visualisation. -->
		<param name="linkWidth" value="30.0" />
		<!-- [comma-separated list] Defines which modes are congested modes. Technically, these are the modes that the departure handler of the netsimengine handles.  Effective cell size, effective lane width, flow capacity factor, and storage capacity factor need to be set with diligence.  Need to be vehicular modes to make sense. -->
		<param name="mainMode" value="car" />
		<!-- Shortens a link in the visualization, i.e. its start and end point are moved into towards the center. Does not affect traffic flow.  -->
		<param name="nodeOffset" value="0.0" />
		<!-- Number of threads used for the QSim.  Note that this setting is independent from the "global" threads setting.  In contrast to earlier versions, the non-parallel special version is no longer there. -->
		<param name="numberOfThreads" value="1" />
		<!-- Boolean. `true': stuck vehicles are removed, aborting the plan; `false': stuck vehicles are forced into the next link. `false' is probably the better choice. -->
		<param name="removeStuckVehicles" value="false" />
		<!-- If link dynamics is set as SeepageQ, set a seep mode. Default is bike. -->
		<param name="seepMode" value="bike" />
		<!-- Possible values: minOfEndtimeAndMobsimFinished, onlyUseEndtime -->
		<param name="simEndtimeInterpretation" value="null" />
		<!-- Options: maxOfStarttimeAndEarliestActivityEnd onlyUseStarttime  -->
		<param name="simStarttimeInterpretation" value="maxOfStarttimeAndEarliestActivityEnd" />
		<!-- snapshotStyle. One of: equiDist queue withHoles withHolesAndShowHoles kinematicWaves  -->
		<param name="snapshotStyle" value="equiDist" />
		<param name="snapshotperiod" value="00:00:00" />
		<param name="startTime" value="00:00:00" />
		<param name="storageCapacityFactor" value="1.0" />
		<!-- time in seconds.  Time after which the frontmost vehicle on a link is called `stuck' if it does not move. -->
		<param name="stuckTime" value="10.0" />
		<param name="timeStepSize" value="00:00:01" />
		<!-- options: queue withHoles kinematicWaves  -->
		<param name="trafficDynamics" value="queue" />
		<!-- Set this parameter to true if lanes should be used, false if not. -->
		<param name="useLanes" value="false" />
		<!-- If a route does not reference a vehicle, agents will use the vehicle with the same id as their own. -->
		<param name="usePersonIdForMissingVehicleId" value="true" />
		<!-- If false, the qsim accumulates fractional flows up to one flow unit in every time step.  If true, flows are updated only if an agent wants to enter the link or an agent is added to buffer. Default is true. -->
		<param name="usingFastCapacityUpdate" value="true" />
		<!-- if the qsim should use as many runners as there are threads (Christoph's dissertation version) or more of them, together with a thread pool (seems to be faster in some situations, but is not tested). -->
		<param name="usingThreadpool" value="true" />
		<!-- Defines what happens if an agent wants to depart, but the specified vehicle is not available. One of: teleport wait exception  -->
		<param name="vehicleBehavior" value="teleport" />
		<!-- If vehicles should all be the same default vehicle, or come from the vehicles file, or something else.  Possible values:  defaultVehicle modeVehicleTypesFromVehiclesData fromVehiclesData -->
		<param name="vehiclesSource" value="defaultVehicle" />
	</module>
<!-- ====================================================================== -->
	<module name="scenario" >
	</module>
<!-- ====================================================================== -->
	<module name="strategy" >
		<!-- the external executable will be called with a config file as argument.  This is the pathname to a possible skeleton config, to which additional information will be added.  Can be null. -->
		<param name="ExternalExeConfigTemplate" value="null" />
		<!-- time out value (in seconds) after which matsim will consider the external strategy as failed -->
		<param name="ExternalExeTimeOut" value="3600" />
		<!-- root directory for temporary files generated by the external executable. Provided as a service; I don't think this is used by MATSim. -->
		<param name="ExternalExeTmpFileRootDir" value="null" />
		<!-- fraction of iterations where innovative strategies are switched off.  Something link 0.8 should be good.  E.g. if you run from iteration 400 to iteration 500, innovation is switched off at iteration 480 -->
		<param name="fractionOfIterationsToDisableInnovation" value="Infinity" />
		<!-- maximum number of plans per agent.  ``0'' means ``infinity''.  Currently (2010), ``5'' is a good number -->
		<param name="maxAgentPlanMemorySize" value="5" />
		<!-- strategyName of PlanSelector for plans removal.  Possible defaults: WorstPlanSelector SelectRandom SelectExpBetaForRemoval ChangeExpBetaForRemoval PathSizeLogitSelectorForRemoval . The current default, WorstPlanSelector is not a good choice from a discrete choice theoretical perspective. Alternatives, however, have not been systematically tested. kai, feb'12 -->
		<param name="planSelectorForRemoval" value="WorstPlanSelector" />
		<parameterset type="strategysettings" >
			<!-- iteration after which strategy will be disabled.  most useful for ``innovative'' strategies (new routes, new times, ...). Normally, better use fractionOfIterationsToDisableInnovation -->
			<param name="disableAfterIteration" value="-1" />
			<!-- path to external executable (if applicable) -->
			<param name="executionPath" value="null" />
			<!-- strategyName of strategy.  Possible default names: SelectRandomBestScoreKeepLastSelectedChangeExpBetaSelectExpBetaSelectPathSizeLogit (selectors), ReRoute TimeAllocationMutator ChangeLegMode TimeAllocationMutator_ReRoute ChangeSingleLegMode ChangeSingleTripMode SubtourModeChoice ChangeTripMode TripSubtourModeChoice  (innovative strategies). -->
			<param name="strategyName" value="BestScore" />
			<!-- subpopulation to which the strategy applies. "null" refers to the default population, that is, the set of persons for which no explicit subpopulation is defined (ie no subpopulation attribute) -->
			<param name="subpopulation" value="null" />
			<!-- weight of a strategy: for each agent, a strategy will be selected with a probability proportional to its weight -->
			<param name="weight" value="0.9" />
		</parameterset>
		<parameterset type="strategysettings" >
			<!-- iteration after which strategy will be disabled.  most useful for ``innovative'' strategies (new routes, new times, ...). Normally, better use fractionOfIterationsToDisableInnovation -->
			<param name="disableAfterIteration" value="-1" />
			<!-- path to external executable (if applicable) -->
			<param name="executionPath" value="null" />
			<!-- strategyName of strategy.  Possible default names: SelectRandomBestScoreKeepLastSelectedChangeExpBetaSelectExpBetaSelectPathSizeLogit (selectors), ReRoute TimeAllocationMutator ChangeLegMode TimeAllocationMutator_ReRoute ChangeSingleLegMode ChangeSingleTripMode SubtourModeChoice ChangeTripMode TripSubtourModeChoice  (innovative strategies). -->
			<param name="strategyName" value="ReRoute" />
			<!-- subpopulation to which the strategy applies. "null" refers to the default population, that is, the set of persons for which no explicit subpopulation is defined (ie no subpopulation attribute) -->
			<param name="subpopulation" value="null" />
			<!-- weight of a strategy: for each agent, a strategy will be selected with a probability proportional to its weight -->
			<param name="weight" value="0.1" />
		</parameterset>
	</module>
<!-- ====================================================================== -->
	<module name="subtourModeChoice" >
		<!-- Defines the chain-based modes, seperated by commas -->
		<param name="chainBasedModes" value="car,bike" />
		<!-- Defines whether car availability must be considered or not. A agent has no car only if it has no license, or never access to a car -->
		<param name="considerCarAvailability" value="false" />
		<!-- Defines all the modes available, including chain-based modes, seperated by commas -->
		<param name="modes" value="car,pt,bike,walk" />
	</module>
<!-- ====================================================================== -->
	<module name="transit" >
		<!-- The Coordinates Reference System in which the coordinates are expressed in the input file. At import, the coordinates will be converted to the coordinate system defined in "global", and willbe converted back at export. If not specified, no conversion happens. -->
		<param name="inputScheduleCRS" value="null" />
		<!-- Optional input file containing additional attributes for transit lines, stored as ObjectAttributes. -->
		<param name="transitLinesAttributesFile" value="null" />
		<!-- Comma-separated list of transportation modes that are handled as transit. Defaults to 'pt'. -->
		<param name="transitModes" value="pt" />
		<!-- Input file containing the transit schedule to be simulated. -->
		<param name="transitScheduleFile" value="null" />
		<!-- Optional input file containing additional attributes for transit stop facilities, stored as ObjectAttributes. -->
		<param name="transitStopsAttributesFile" value="null" />
		<!-- Set this parameter to true if transit should be simulated, false if not. -->
		<param name="useTransit" value="false" />
		<!-- Input file containing the vehicles used by the departures in the transit schedule. -->
		<param name="vehiclesFile" value="null" />
	</module>
<!-- ====================================================================== -->
	<module name="transitRouter" >
		<!-- additional time the router allocates when a line switch happens. Can be interpreted as a 'safety' time that agents need to safely transfer from one line to another -->
		<param name="additionalTransferTime" value="0.0" />
		<!-- Factor with which direct walk generalized cost is multiplied before it is compared to the pt generalized cost.  Set to a very high value to reduce direct walk results. -->
		<param name="directWalkFactor" value="1.0" />
		<!-- step size to increase searchRadius if no stops are found -->
		<param name="extensionRadius" value="200.0" />
		<!-- maximum beeline distance between stops that agents could transfer to by walking -->
		<param name="maxBeelineWalkConnectionDistance" value="100.0" />
		<!-- the radius in which stop locations are searched, given a start or target coordinate -->
		<param name="searchRadius" value="1000.0" />
	</module>
<!-- ====================================================================== -->
	<module name="travelTimeCalculator" >
		<!-- Transport modes that will be respected by the travel time collector. 'car' is default, which includes also busses from the pt simulation module. Use this parameter in combination with 'filterModes' = true! -->
		<param name="analyzedModes" value="car" />
		<param name="calculateLinkToLinkTravelTimes" value="false" />
		<param name="calculateLinkTravelTimes" value="true" />
		<!-- If true, link travel times from legs performed on modes not included in the 'analyzedModes' parameter are ignored. -->
		<param name="filterModes" value="false" />
		<!-- The lenght (in sec) of the time period that is splited into time bins; an additional time bin is created to aggregate all travel times collected after maxTime -->
		<param name="maxTime" value="108000" />
		<!-- If true, link travel times are measured and calculated separately for each mode in analyzedModes. Other modes are ignored. If true, filterModes has no effect. -->
		<param name="separateModes" value="false" />
		<!-- How to deal with congested time bins that have no link entry events. `optimistic' assumes free speed (too optimistic); 'experimental_LastMile' is experimental and probably too pessimistic. -->
		<param name="travelTimeAggregator" value="optimistic" />
		<!-- The size of the time bin (in sec) into which the link travel times are aggregated for the router -->
		<param name="travelTimeBinSize" value="900" />
		<!-- possible values: TravelTimeCalculatorArray TravelTimeCalculatorHashMap  -->
		<param name="travelTimeCalculator" value="TravelTimeCalculatorArray" />
		<!-- How to deal with link entry times at different positions during the time bin. Currently supported: average, linearinterpolation -->
		<param name="travelTimeGetter" value="average" />
	</module>
<!-- ====================================================================== -->
	<module name="vehicles" >
		<param name="vehiclesFile" value="null" />
	</module>
<!-- ====================================================================== -->
	<module name="vspExperimental" >
		<!-- (do not use except of you have to) There was a problem with pt interaction scoring.  Some people solved it by overwriting the parameters of the pt interaction activity type.  Doing this now throws an Exception.  If you still insist on doing this, set the following to true. -->
		<param name="isAbleToOverwritePtInteractionParams" value="false" />
		<param name="isGeneratingBoardingDeniedEvent" value="false" />
		<!-- if an approximation of the opportunity cost of time is included into the radius calculation for location choice.`true' will be faster, but it is an approximation.  Default is `true'; `false' is available for backwards compatibility. -->
		<param name="isUsingOpportunityCostOfTimeForLocationChoice" value="true" />
		<param name="logitScaleParamForPlansRemoval" value="1.0" />
		<!-- Options: | ignore | info | warn | abort | .  When violating VSP defaults, this results in nothing, logfile infos, logfile warnings, or aborts.  Members of VSP should use `abort' or talk to kai. -->
		<param name="vspDefaultsCheckingLevel" value="ignore" />
		<!-- if true then writes output_events in output directory.  default is `false'. Will only work when lastIteration is multiple of events writing interval -->
		<param name="writingOutputEvents" value="true" />
	</module>
<!-- ====================================================================== -->

</config>

2018-05-30 11:30:37,608  INFO ControlerUtils:63 Complete config dump done.
2018-05-30 11:30:37,608  INFO ControlerUtils:64 Checking consistency of config...
2018-05-30 11:30:37,608  INFO VspConfigConsistencyCheckerImpl:58 NOT running vsp config consistency check because vsp defaults checking level is set to IGNORE
2018-05-30 11:30:37,608  INFO ControlerUtils:66 Checking consistency of config done.
2018-05-30 11:30:37,609 DEBUG NetworkRoutingProvider:75 requesting network routing module with routingMode=car;	mode=car
2018-05-30 11:30:37,609 DEBUG NetworkRoutingProvider:75 requesting network routing module with routingMode=car;	mode=car
2018-05-30 11:30:37,609  INFO Counter:61 [PersonPrepareForSim] handled person # 2
2018-05-30 11:30:37,609  INFO Counter:61 [PersonPrepareForSim] handled person # 1
2018-05-30 11:30:37,610  INFO Counter:61 [PersonPrepareForSim] handled person # 4
2018-05-30 11:30:37,610  INFO Counter:61 [PersonPrepareForSim] handled person # 8
2018-05-30 11:30:37,611  INFO Counter:61 [PersonPrepareForSim] handled person # 16
2018-05-30 11:30:37,611  INFO Counter:61 [PersonPrepareForSim] handled person # 32
2018-05-30 11:30:37,611  INFO Counter:61 [PersonPrepareForSim] handled person # 64
2018-05-30 11:30:37,611  INFO Counter:67 [PersonPrepareForSim] handled person # 100
2018-05-30 11:30:37,611  INFO Counter:61  vehicles # 1
2018-05-30 11:30:37,611  INFO Counter:61  vehicles # 2
2018-05-30 11:30:37,612  INFO Counter:61  vehicles # 4
2018-05-30 11:30:37,612  INFO Counter:61  vehicles # 8
2018-05-30 11:30:37,612  INFO Counter:61  vehicles # 16
2018-05-30 11:30:37,612  INFO Counter:61  vehicles # 32
2018-05-30 11:30:37,612  INFO Counter:61  vehicles # 64
2018-05-30 11:30:37,612  INFO AbstractController:121 ###################################################
2018-05-30 11:30:37,613  INFO AbstractController:122 ### ITERATION 0 BEGINS
2018-05-30 11:30:37,613  INFO ControlerListenerManagerImpl:145 calling notifyIterationStarts on org.matsim.analysis.LegHistogramListener
2018-05-30 11:30:37,613  INFO ControlerListenerManagerImpl:145 calling notifyIterationStarts on org.matsim.analysis.LinkStatsControlerListener
2018-05-30 11:30:37,613  INFO ControlerListenerManagerImpl:145 calling notifyIterationStarts on org.matsim.core.replanning.ReplanningContextImpl
2018-05-30 11:30:37,613  INFO ControlerListenerManagerImpl:145 calling notifyIterationStarts on org.matsim.core.scoring.ExperiencedPlansServiceImpl$1
2018-05-30 11:30:37,614  INFO ControlerListenerManagerImpl:145 calling notifyIterationStarts on org.matsim.core.scoring.ScoringFunctionsForPopulation$1
2018-05-30 11:30:37,615  INFO ControlerListenerManagerImpl:148 [it.0] all ControlerIterationStartsListeners called.
2018-05-30 11:30:37,616  INFO ControlerListenerManagerImpl:224 calling notifyBeforeMobsim on org.matsim.core.controler.corelisteners.EventsHandlingImpl
2018-05-30 11:30:37,616  INFO EventsManagerImpl:170 resetting Event-Handlers
2018-05-30 11:30:37,616  INFO EventsManagerImpl:177   org.matsim.withinday.replanning.identifiers.tools.ActivityReplanningMap
2018-05-30 11:30:37,616  INFO EventsManagerImpl:177   org.matsim.withinday.trafficmonitoring.EarliestLinkExitTimeProvider
2018-05-30 11:30:37,616  INFO EventsManagerImpl:177   org.matsim.withinday.replanning.identifiers.tools.LinkReplanningMap
2018-05-30 11:30:37,616  INFO EventsManagerImpl:177   org.matsim.analysis.LegHistogram
2018-05-30 11:30:37,616  INFO EventsManagerImpl:177   org.matsim.withinday.trafficmonitoring.WithinDayTravelTime
2018-05-30 11:30:37,617  INFO EventsManagerImpl:177   org.matsim.core.scoring.EventsToActivities
2018-05-30 11:30:37,617  INFO EventsManagerImpl:177   org.matsim.analysis.CalcLegTimes
2018-05-30 11:30:37,617  INFO EventsManagerImpl:177   org.matsim.core.scoring.EventsToLegs
2018-05-30 11:30:37,617  INFO EventsManagerImpl:177   org.matsim.analysis.VolumesAnalyzer
2018-05-30 11:30:37,617  INFO EventsManagerImpl:177   org.matsim.core.scoring.ScoringFunctionsForPopulation
2018-05-30 11:30:37,617  INFO EventsManagerImpl:144 adding Event-Handler: org.matsim.core.events.algorithms.EventWriterXML
2018-05-30 11:30:37,618  INFO EventsManagerImpl:148   org.matsim.core.events.algorithms.EventWriter
2018-05-30 11:30:37,618  INFO EventsManagerImpl:148   org.matsim.core.events.handler.BasicEventHandler
2018-05-30 11:30:37,618  INFO EventsManagerImpl:207     > org.matsim.api.core.v01.events.Event
2018-05-30 11:30:37,618  INFO EventsManagerImpl:156 
2018-05-30 11:30:37,618  INFO EventsManagerImpl:144 adding Event-Handler: org.matsim.core.events.algorithms.EventWriterXML
2018-05-30 11:30:37,618  INFO EventsManagerImpl:148   org.matsim.core.events.algorithms.EventWriter
2018-05-30 11:30:37,618  INFO EventsManagerImpl:148   org.matsim.core.events.handler.BasicEventHandler
2018-05-30 11:30:37,618  INFO EventsManagerImpl:207     > org.matsim.api.core.v01.events.Event
2018-05-30 11:30:37,619  INFO EventsManagerImpl:156 
2018-05-30 11:30:37,619  INFO ControlerListenerManagerImpl:224 calling notifyBeforeMobsim on org.matsim.core.controler.corelisteners.PlansDumpingImpl
2018-05-30 11:30:37,619  INFO PlansDumpingImpl:75 dumping plans...
2018-05-30 11:30:37,619  INFO Counter:61 [PopulationWriter] dumped person # 1
2018-05-30 11:30:37,619  INFO Counter:61 [PopulationWriter] dumped person # 2
2018-05-30 11:30:37,620  INFO Counter:61 [PopulationWriter] dumped person # 4
2018-05-30 11:30:37,620  INFO Counter:61 [PopulationWriter] dumped person # 8
2018-05-30 11:30:37,620  INFO Counter:61 [PopulationWriter] dumped person # 16
2018-05-30 11:30:37,621  INFO Counter:61 [PopulationWriter] dumped person # 32
2018-05-30 11:30:37,622  INFO Counter:61 [PopulationWriter] dumped person # 64
2018-05-30 11:30:37,624  INFO PopulationWriter:139 Population written to: test/output/org/matsim/withinday/controller/ExampleWithinDayControllerTest/testRun/ITERS/it.0/0.plans.xml.gz
2018-05-30 11:30:37,624  INFO Counter:67 [PopulationWriter] dumped person # 100
2018-05-30 11:30:37,624  INFO PlansDumpingImpl:92 finished plans dump.
2018-05-30 11:30:37,624  INFO ControlerListenerManagerImpl:229 calling notifyBeforeMobsim on org.matsim.core.population.VspPlansCleaner
2018-05-30 11:30:37,624  INFO ControlerListenerManagerImpl:232 [it.0] all ControlerBeforeMobsimListeners called.
2018-05-30 11:30:37,642  INFO Injector:80 === printInjector start ===
2018-05-30 11:30:37,642  INFO Injector:84 org.matsim.api.core.v01.Scenario 
2018-05-30 11:30:37,642  INFO Injector:85   --> provider: of(org.matsim.core.scenario.MutableScenario@2c0450ee)
2018-05-30 11:30:37,642  INFO Injector:86   --> source: org.matsim.core.scenario.ScenarioByInstanceModule.install(ScenarioByInstanceModule.java:31)
2018-05-30 11:30:37,642  INFO Injector:88   --> scope: eager singleton
2018-05-30 11:30:37,642  INFO Injector:92 
2018-05-30 11:30:37,643  INFO Injector:84 org.matsim.api.core.v01.population.Population 
2018-05-30 11:30:37,643  INFO Injector:85   --> provider: @Provides org.matsim.core.scenario.ScenarioByInstanceModule.providePopulation(ScenarioByInstanceModule.java:43)
2018-05-30 11:30:37,643  INFO Injector:86   --> source: org.matsim.api.core.v01.population.Population org.matsim.core.scenario.ScenarioByInstanceModule.providePopulation(org.matsim.api.core.v01.Scenario)
2018-05-30 11:30:37,643  INFO Injector:88   --> scope: Scopes.NO_SCOPE
2018-05-30 11:30:37,643  INFO Injector:92 
2018-05-30 11:30:37,643  INFO Injector:84 org.matsim.api.core.v01.population.PopulationFactory 
2018-05-30 11:30:37,643  INFO Injector:85   --> provider: @Provides org.matsim.core.scenario.ScenarioByInstanceModule.providePopulationFactory(ScenarioByInstanceModule.java:47)
2018-05-30 11:30:37,644  INFO Injector:86   --> source: org.matsim.api.core.v01.population.PopulationFactory org.matsim.core.scenario.ScenarioByInstanceModule.providePopulationFactory(org.matsim.api.core.v01.population.Population)
2018-05-30 11:30:37,649  INFO Injector:88   --> scope: Scopes.NO_SCOPE
2018-05-30 11:30:37,649  INFO Injector:92 
2018-05-30 11:30:37,649  INFO Injector:84 org.matsim.facilities.ActivityFacilities 
2018-05-30 11:30:37,649  INFO Injector:85   --> provider: @Provides org.matsim.core.scenario.ScenarioByInstanceModule.provideActivityFacilities(ScenarioByInstanceModule.java:51)
2018-05-30 11:30:37,650  INFO Injector:86   --> source: org.matsim.facilities.ActivityFacilities org.matsim.core.scenario.ScenarioByInstanceModule.provideActivityFacilities(org.matsim.api.core.v01.Scenario)
2018-05-30 11:30:37,650  INFO Injector:88   --> scope: Scopes.NO_SCOPE
2018-05-30 11:30:37,650  INFO Injector:92 
2018-05-30 11:30:37,650  INFO Injector:84 org.matsim.households.Households 
2018-05-30 11:30:37,650  INFO Injector:85   --> provider: @Provides org.matsim.core.scenario.ScenarioByInstanceModule.provideHouseholds(ScenarioByInstanceModule.java:56)
2018-05-30 11:30:37,650  INFO Injector:86   --> source: org.matsim.households.Households org.matsim.core.scenario.ScenarioByInstanceModule.provideHouseholds(org.matsim.api.core.v01.Scenario)
2018-05-30 11:30:37,650  INFO Injector:88   --> scope: Scopes.NO_SCOPE
2018-05-30 11:30:37,650  INFO Injector:92 
2018-05-30 11:30:37,651  INFO Injector:84 org.matsim.lanes.data.Lanes 
2018-05-30 11:30:37,651  INFO Injector:85   --> provider: @Provides org.matsim.core.scenario.ScenarioByInstanceModule.provideLanes(ScenarioByInstanceModule.java:66)
2018-05-30 11:30:37,651  INFO Injector:86   --> source: org.matsim.lanes.data.Lanes org.matsim.core.scenario.ScenarioByInstanceModule.provideLanes(org.matsim.api.core.v01.Scenario)
2018-05-30 11:30:37,651  INFO Injector:88   --> scope: Scopes.NO_SCOPE
2018-05-30 11:30:37,651  INFO Injector:92 
2018-05-30 11:30:37,651  INFO Injector:84 org.matsim.vehicles.Vehicles 
2018-05-30 11:30:37,651  INFO Injector:85   --> provider: @Provides org.matsim.core.scenario.ScenarioByInstanceModule.provideVehicles(ScenarioByInstanceModule.java:61)
2018-05-30 11:30:37,652  INFO Injector:86   --> source: org.matsim.vehicles.Vehicles org.matsim.core.scenario.ScenarioByInstanceModule.provideVehicles(org.matsim.api.core.v01.Scenario)
2018-05-30 11:30:37,652  INFO Injector:88   --> scope: Scopes.NO_SCOPE
2018-05-30 11:30:37,652  INFO Injector:92 
2018-05-30 11:30:37,652  INFO Injector:84 org.matsim.api.core.v01.network.Network 
2018-05-30 11:30:37,652  INFO Injector:85   --> provider: @Provides org.matsim.core.scenario.ScenarioByInstanceModule.provideNetwork(ScenarioByInstanceModule.java:39)
2018-05-30 11:30:37,652  INFO Injector:86   --> source: org.matsim.api.core.v01.network.Network org.matsim.core.scenario.ScenarioByInstanceModule.provideNetwork(org.matsim.api.core.v01.Scenario)
2018-05-30 11:30:37,652  INFO Injector:88   --> scope: Scopes.NO_SCOPE
2018-05-30 11:30:37,652  INFO Injector:92 
2018-05-30 11:30:37,653  INFO Injector:84 org.matsim.core.api.experimental.events.EventsManager 
2018-05-30 11:30:37,653  INFO Injector:85   --> provider: of(org.matsim.core.events.SimStepParallelEventsManagerImpl@46236ab4)
2018-05-30 11:30:37,653  INFO Injector:86   --> source: org.matsim.core.mobsim.qsim.QSimUtils$StandaloneQSimModule.install(QSimUtils.java:108)
2018-05-30 11:30:37,653  INFO Injector:88   --> scope: eager singleton
2018-05-30 11:30:37,653  INFO Injector:92 
2018-05-30 11:30:37,653  INFO Injector:84 org.matsim.core.mobsim.framework.Mobsim 
2018-05-30 11:30:37,653  INFO Injector:85   --> provider: Key[type=org.matsim.core.mobsim.qsim.QSimProvider, annotation=[none]]
2018-05-30 11:30:37,654  INFO Injector:86   --> source: org.matsim.core.mobsim.qsim.QSimModule.configure(QSimModule.java:28)
2018-05-30 11:30:37,654  INFO Injector:88   --> scope: Scopes.NO_SCOPE
2018-05-30 11:30:37,654  INFO Injector:92 
2018-05-30 11:30:37,654  INFO Injector:84 org.matsim.core.mobsim.qsim.qnetsimengine.QNetworkFactory 
2018-05-30 11:30:37,654  INFO Injector:85   --> provider: FactoryProxy{key=Key[type=org.matsim.core.mobsim.qsim.qnetsimengine.QNetworkFactory, annotation=[none]], provider=com.google.inject.internal.ConstructorBindingImpl$Factory@598b4f0b}
2018-05-30 11:30:37,654  INFO Injector:86   --> source: org.matsim.core.mobsim.qsim.QSimModule.configure(QSimModule.java:32)
2018-05-30 11:30:37,654  INFO Injector:88   --> scope: Scopes.NO_SCOPE
2018-05-30 11:30:37,654  INFO Injector:92 
2018-05-30 11:30:37,655  INFO Injector:95 === printInjector end ===
2018-05-30 11:30:37,658  INFO Injector:80 === printInjector start ===
2018-05-30 11:30:37,658  INFO Injector:84 org.matsim.core.mobsim.qsim.qnetsimengine.VehicularDepartureHandler 
2018-05-30 11:30:37,658  INFO Injector:85   --> provider: Key[type=org.matsim.core.mobsim.qsim.qnetsimengine.QNetsimEngineDepartureHandlerProvider, annotation=[none]][Scopes.SINGLETON]
2018-05-30 11:30:37,658  INFO Injector:86   --> source: org.matsim.core.mobsim.qsim.qnetsimengine.QNetsimEnginePlugin$1.configure(QNetsimEnginePlugin.java:25)
2018-05-30 11:30:37,658  INFO Injector:88   --> scope: eager singleton
2018-05-30 11:30:37,659  INFO Injector:92 
2018-05-30 11:30:37,659  INFO Injector:84 org.matsim.core.mobsim.qsim.agents.AgentFactory 
2018-05-30 11:30:37,659  INFO Injector:85   --> provider: FactoryProxy{key=Key[type=org.matsim.core.mobsim.qsim.agents.AgentFactory, annotation=[none]], provider=com.google.inject.internal.ConstructorBindingImpl$Factory@46e54b7c}[Scopes.SINGLETON]
2018-05-30 11:30:37,659  INFO Injector:86   --> source: org.matsim.core.mobsim.qsim.PopulationPlugin$1.configure(PopulationPlugin.java:30)
2018-05-30 11:30:37,659  INFO Injector:88   --> scope: eager singleton
2018-05-30 11:30:37,659  INFO Injector:92 
2018-05-30 11:30:37,659  INFO Injector:84 org.matsim.core.mobsim.qsim.interfaces.Netsim 
2018-05-30 11:30:37,660  INFO Injector:85   --> provider: FactoryProxy{key=Key[type=org.matsim.core.mobsim.qsim.interfaces.Netsim, annotation=[none]], provider=com.google.inject.internal.ConstructorBindingImpl$Factory@17f6bd8f[Scopes.SINGLETON]}
2018-05-30 11:30:37,660  INFO Injector:86   --> source: org.matsim.core.mobsim.qsim.QSimProvider$1.configure(QSimProvider.java:65)
2018-05-30 11:30:37,660  INFO Injector:88   --> scope: Scopes.NO_SCOPE
2018-05-30 11:30:37,660  INFO Injector:92 
2018-05-30 11:30:37,660  INFO Injector:84 org.matsim.core.mobsim.jdeqsim.MessageQueue 
2018-05-30 11:30:37,660  INFO Injector:85   --> provider: com.google.inject.internal.ConstructorBindingImpl$Factory@788629d0[Scopes.SINGLETON]
2018-05-30 11:30:37,661  INFO Injector:86   --> source: org.matsim.core.mobsim.qsim.messagequeueengine.MessageQueuePlugin$1.configure(MessageQueuePlugin.java:24)
2018-05-30 11:30:37,661  INFO Injector:88   --> scope: eager singleton
2018-05-30 11:30:37,661  INFO Injector:92 
2018-05-30 11:30:37,661  INFO Injector:84 org.matsim.core.mobsim.qsim.jdeqsimengine.SteppableScheduler 
2018-05-30 11:30:37,661  INFO Injector:85   --> provider: com.google.inject.internal.ConstructorBindingImpl$Factory@421acb6c[Scopes.SINGLETON]
2018-05-30 11:30:37,661  INFO Injector:86   --> source: org.matsim.core.mobsim.qsim.messagequeueengine.MessageQueuePlugin$1.configure(MessageQueuePlugin.java:25)
2018-05-30 11:30:37,661  INFO Injector:88   --> scope: eager singleton
2018-05-30 11:30:37,662  INFO Injector:92 
2018-05-30 11:30:37,662  INFO Injector:84 org.matsim.core.mobsim.qsim.messagequeueengine.MessageQueueEngine 
2018-05-30 11:30:37,662  INFO Injector:85   --> provider: com.google.inject.internal.ConstructorBindingImpl$Factory@ec4bcd9[Scopes.SINGLETON]
2018-05-30 11:30:37,662  INFO Injector:86   --> source: org.matsim.core.mobsim.qsim.messagequeueengine.MessageQueuePlugin$1.configure(MessageQueuePlugin.java:26)
2018-05-30 11:30:37,662  INFO Injector:88   --> scope: eager singleton
2018-05-30 11:30:37,662  INFO Injector:92 
2018-05-30 11:30:37,662  INFO Injector:84 org.matsim.core.mobsim.qsim.ActivityEngine 
2018-05-30 11:30:37,663  INFO Injector:85   --> provider: com.google.inject.internal.ConstructorBindingImpl$Factory@610c0277[Scopes.SINGLETON]
2018-05-30 11:30:37,663  INFO Injector:86   --> source: org.matsim.core.mobsim.qsim.ActivityEnginePlugin$1.configure(ActivityEnginePlugin.java:23)
2018-05-30 11:30:37,663  INFO Injector:88   --> scope: eager singleton
2018-05-30 11:30:37,663  INFO Injector:92 
2018-05-30 11:30:37,663  INFO Injector:84 org.matsim.core.mobsim.qsim.qnetsimengine.QNetsimEngine 
2018-05-30 11:30:37,663  INFO Injector:85   --> provider: com.google.inject.internal.ConstructorBindingImpl$Factory@4c3a86c5[Scopes.SINGLETON]
2018-05-30 11:30:37,663  INFO Injector:86   --> source: org.matsim.core.mobsim.qsim.qnetsimengine.QNetsimEnginePlugin$1.configure(QNetsimEnginePlugin.java:24)
2018-05-30 11:30:37,664  INFO Injector:88   --> scope: eager singleton
2018-05-30 11:30:37,664  INFO Injector:92 
2018-05-30 11:30:37,664  INFO Injector:84 org.matsim.core.mobsim.qsim.DefaultTeleportationEngine 
2018-05-30 11:30:37,664  INFO Injector:85   --> provider: com.google.inject.internal.ConstructorBindingImpl$Factory@262aec01[Scopes.SINGLETON]
2018-05-30 11:30:37,664  INFO Injector:86   --> source: org.matsim.core.mobsim.qsim.TeleportationPlugin$1.configure(TeleportationPlugin.java:21)
2018-05-30 11:30:37,664  INFO Injector:88   --> scope: eager singleton
2018-05-30 11:30:37,664  INFO Injector:92 
2018-05-30 11:30:37,665  INFO Injector:84 org.matsim.core.mobsim.qsim.agents.PopulationAgentSource 
2018-05-30 11:30:37,665  INFO Injector:85   --> provider: com.google.inject.internal.ConstructorBindingImpl$Factory@8e2ad6b[Scopes.SINGLETON]
2018-05-30 11:30:37,665  INFO Injector:86   --> source: org.matsim.core.mobsim.qsim.PopulationPlugin$1.configure(PopulationPlugin.java:26)
2018-05-30 11:30:37,665  INFO Injector:88   --> scope: eager singleton
2018-05-30 11:30:37,665  INFO Injector:92 
2018-05-30 11:30:37,665  INFO Injector:84 org.matsim.core.mobsim.qsim.QSim 
2018-05-30 11:30:37,666  INFO Injector:85   --> provider: com.google.inject.internal.ConstructorBindingImpl$Factory@17f6bd8f[Scopes.SINGLETON]
2018-05-30 11:30:37,666  INFO Injector:86   --> source: org.matsim.core.mobsim.qsim.QSimProvider$1.configure(QSimProvider.java:64)
2018-05-30 11:30:37,666  INFO Injector:88   --> scope: eager singleton
2018-05-30 11:30:37,666  INFO Injector:92 
2018-05-30 11:30:37,666  INFO Injector:95 === printInjector end ===
2018-05-30 11:30:37,666  INFO MobsimListenerManager:49 calling addQueueSimulationListener
2018-05-30 11:30:37,666  INFO MobsimListenerManager:53   assigned class org.matsim.core.mobsim.framework.listeners.MobsimListener to interface org.matsim.core.mobsim.framework.listeners.MobsimListener
2018-05-30 11:30:37,667  INFO MobsimListenerManager:53   assigned class org.matsim.core.mobsim.framework.listeners.MobsimListener to interface org.matsim.core.mobsim.framework.listeners.MobsimBeforeSimStepListener
2018-05-30 11:30:37,667  INFO MobsimListenerManager:53   assigned class org.matsim.core.mobsim.framework.listeners.MobsimListener to interface org.matsim.core.mobsim.qsim.messagequeueengine.MessageQueueEngine
2018-05-30 11:30:37,667  INFO WithinDayQSimFactory:57 Adding WithinDayEngine to Mobsim.
2018-05-30 11:30:37,667  INFO MobsimListenerManager:49 calling addQueueSimulationListener
2018-05-30 11:30:37,667  INFO MobsimListenerManager:53   assigned class org.matsim.core.mobsim.framework.listeners.MobsimListener to interface org.matsim.core.mobsim.framework.listeners.MobsimListener
2018-05-30 11:30:37,667  INFO MobsimListenerManager:53   assigned class org.matsim.core.mobsim.framework.listeners.MobsimListener to interface org.matsim.core.mobsim.framework.listeners.MobsimAfterSimStepListener
2018-05-30 11:30:37,668  INFO MobsimListenerManager:53   assigned class org.matsim.core.mobsim.framework.listeners.MobsimListener to interface org.matsim.core.mobsim.framework.listeners.MobsimBeforeCleanupListener
2018-05-30 11:30:37,668  INFO MobsimListenerManager:53   assigned class org.matsim.core.mobsim.framework.listeners.MobsimListener to interface org.matsim.core.mobsim.framework.listeners.MobsimBeforeSimStepListener
2018-05-30 11:30:37,668  INFO MobsimListenerManager:53   assigned class org.matsim.core.mobsim.framework.listeners.MobsimListener to interface org.matsim.core.mobsim.framework.listeners.FixedOrderSimulationListener
2018-05-30 11:30:37,668  INFO MobsimListenerManager:53   assigned class org.matsim.core.mobsim.framework.listeners.MobsimListener to interface org.matsim.core.mobsim.framework.listeners.MobsimInitializedListener
2018-05-30 11:30:37,668  INFO MobsimListenerManager:49 calling addQueueSimulationListener
2018-05-30 11:30:37,668  INFO MobsimListenerManager:53   assigned class org.matsim.core.mobsim.framework.listeners.MobsimListener to interface org.matsim.withinday.trafficmonitoring.WithinDayTravelTime
2018-05-30 11:30:37,668  INFO MobsimListenerManager:53   assigned class org.matsim.core.mobsim.framework.listeners.MobsimListener to interface org.matsim.core.mobsim.framework.listeners.MobsimAfterSimStepListener
2018-05-30 11:30:37,668  INFO MobsimListenerManager:53   assigned class org.matsim.core.mobsim.framework.listeners.MobsimListener to interface org.matsim.core.mobsim.framework.listeners.MobsimInitializedListener
2018-05-30 11:30:37,669  INFO MobsimListenerManager:53   assigned class org.matsim.core.mobsim.framework.listeners.MobsimListener to interface org.matsim.core.mobsim.framework.listeners.MobsimListener
2018-05-30 11:30:37,669  INFO MobsimListenerManager:53   assigned class org.matsim.core.mobsim.framework.listeners.MobsimListener to interface org.matsim.core.mobsim.framework.listeners.MobsimBeforeCleanupListener
2018-05-30 11:30:37,669  INFO MobsimListenerManager:53   assigned class org.matsim.core.mobsim.framework.listeners.MobsimListener to interface org.matsim.core.mobsim.framework.listeners.MobsimBeforeSimStepListener
2018-05-30 11:30:37,670  INFO QNetsimEngine:504 Assigned 15 nodes and 23 links to QSimEngineRunner #0
2018-05-30 11:30:37,670 DEBUG NetworkRoutingProvider:75 requesting network routing module with routingMode=car;	mode=car
2018-05-30 11:30:37,671 DEBUG NetworkRoutingProvider:75 requesting network routing module with routingMode=car;	mode=car
2018-05-30 11:30:37,673 DEBUG NetworkRoutingProvider:75 requesting network routing module with routingMode=car;	mode=car
2018-05-30 11:30:37,673 DEBUG NetworkRoutingProvider:75 requesting network routing module with routingMode=car;	mode=car
2018-05-30 11:30:37,676  INFO WithinDayTravelTime:422 WithinDayTravelTime at 05:58:30 #links=0
2018-05-30 11:30:37,679 DEBUG EditTrips:243 new trip:[[mode=car][depTime=undefined][travTime=00:00:00][arrTime=00:00:00][route= startLinkId=1 endLinkId=20 travTime=NaN dist=25000.0 linkIds=[2, 11] travelCost=539.9568034557235]]
2018-05-30 11:30:37,679 DEBUG EditTrips:245 [mode=car][depTime=undefined][travTime=00:00:00][arrTime=00:00:00][route= startLinkId=1 endLinkId=20 travTime=NaN dist=25000.0 linkIds=[2, 11] travelCost=539.9568034557235]
2018-05-30 11:30:37,679  INFO Counter:61 ParallelDuringActivityReplanner Thread0 replanned plans: 1
2018-05-30 11:30:37,679  INFO EventsManagerImpl:134  event # 1
2018-05-30 11:30:37,680  INFO QNetsimEngine:347 SIMULATION (QNetsimEngine) AT 05:58:30 : #links=0 #nodes=1
2018-05-30 11:30:37,680  INFO QSim:506 SIMULATION (NEW QSim) AT 05:58:30 : #Veh=100 lost=0 simT=0.0s realT=0s; (s/r): 0.0
2018-05-30 11:30:37,681  INFO EventsManagerImpl:134  event # 4
2018-05-30 11:30:37,681  INFO Gbl:54 used RAM: 268896136B = 262593kB = 256MB  free: 292616312B = 279MB  total: 561512448B = 535MB
2018-05-30 11:30:37,689 DEBUG EditTrips:243 new trip:[[mode=car][depTime=undefined][travTime=00:00:00][arrTime=00:00:00][route= startLinkId=1 endLinkId=20 travTime=NaN dist=25000.0 linkIds=[2, 11] travelCost=539.9568034557235]]
2018-05-30 11:30:37,689 DEBUG EditTrips:245 [mode=car][depTime=undefined][travTime=00:00:00][arrTime=00:00:00][route= startLinkId=1 endLinkId=20 travTime=NaN dist=25000.0 linkIds=[2, 11] travelCost=539.9568034557235]
2018-05-30 11:30:37,689  INFO Counter:61 ParallelDuringActivityReplanner Thread1 replanned plans: 1
2018-05-30 11:30:37,696 DEBUG EditTrips:243 new trip:[[mode=car][depTime=undefined][travTime=00:00:00][arrTime=00:00:00][route= startLinkId=1 endLinkId=20 travTime=NaN dist=25000.0 linkIds=[2, 11] travelCost=539.9568034557235]]
2018-05-30 11:30:37,696 DEBUG EditTrips:245 [mode=car][depTime=undefined][travTime=00:00:00][arrTime=00:00:00][route= startLinkId=1 endLinkId=20 travTime=NaN dist=25000.0 linkIds=[2, 11] travelCost=539.9568034557235]
2018-05-30 11:30:37,696  INFO Counter:61 ParallelDuringActivityReplanner Thread0 replanned plans: 2
2018-05-30 11:30:37,696  INFO EventsManagerImpl:134  event # 16
2018-05-30 11:30:37,702  INFO WithinDayTravelTime:422 WithinDayTravelTime at 06:00:00 #links=0
2018-05-30 11:30:37,703 DEBUG EditTrips:243 new trip:[[mode=car][depTime=undefined][travTime=00:00:00][arrTime=00:00:00][route= startLinkId=1 endLinkId=20 travTime=NaN dist=25000.0 linkIds=[2, 11] travelCost=539.9568034557235]]
2018-05-30 11:30:37,703 DEBUG EditTrips:243 new trip:[[mode=car][depTime=undefined][travTime=00:00:00][arrTime=00:00:00][route= startLinkId=1 endLinkId=20 travTime=NaN dist=25000.0 linkIds=[2, 11] travelCost=539.9568034557235]]
2018-05-30 11:30:37,703 DEBUG EditTrips:245 [mode=car][depTime=undefined][travTime=00:00:00][arrTime=00:00:00][route= startLinkId=1 endLinkId=20 travTime=NaN dist=25000.0 linkIds=[2, 11] travelCost=539.9568034557235]
2018-05-30 11:30:37,703 DEBUG EditTrips:245 [mode=car][depTime=undefined][travTime=00:00:00][arrTime=00:00:00][route= startLinkId=1 endLinkId=20 travTime=NaN dist=25000.0 linkIds=[2, 11] travelCost=539.9568034557235]
2018-05-30 11:30:37,703  INFO Counter:61 ParallelDuringActivityReplanner Thread1 replanned plans: 2
2018-05-30 11:30:37,704 DEBUG EditTrips:243 new trip:[[mode=car][depTime=undefined][travTime=00:00:00][arrTime=00:00:00][route= startLinkId=1 endLinkId=20 travTime=NaN dist=25000.0 linkIds=[2, 11] travelCost=539.9568034557235]]
2018-05-30 11:30:37,704 DEBUG EditTrips:245 [mode=car][depTime=undefined][travTime=00:00:00][arrTime=00:00:00][route= startLinkId=1 endLinkId=20 travTime=NaN dist=25000.0 linkIds=[2, 11] travelCost=539.9568034557235]
2018-05-30 11:30:37,704 DEBUG EditTrips:243 new trip:[[mode=car][depTime=undefined][travTime=00:00:00][arrTime=00:00:00][route= startLinkId=1 endLinkId=20 travTime=NaN dist=25000.0 linkIds=[2, 11] travelCost=539.9568034557235]]
2018-05-30 11:30:37,704 DEBUG EditTrips:245 [mode=car][depTime=undefined][travTime=00:00:00][arrTime=00:00:00][route= startLinkId=1 endLinkId=20 travTime=NaN dist=25000.0 linkIds=[2, 11] travelCost=539.9568034557235]
2018-05-30 11:30:37,704  INFO Counter:61 ParallelDuringActivityReplanner Thread0 replanned plans: 4
2018-05-30 11:30:37,704 DEBUG EditTrips:243 new trip:[[mode=car][depTime=undefined][travTime=00:00:00][arrTime=00:00:00][route= startLinkId=1 endLinkId=20 travTime=NaN dist=25000.0 linkIds=[2, 11] travelCost=539.9568034557235]]
2018-05-30 11:30:37,704 DEBUG EditTrips:245 [mode=car][depTime=undefined][travTime=00:00:00][arrTime=00:00:00][route= startLinkId=1 endLinkId=20 travTime=NaN dist=25000.0 linkIds=[2, 11] travelCost=539.9568034557235]
2018-05-30 11:30:37,704 DEBUG EditTrips:243 new trip:[[mode=car][depTime=undefined][travTime=00:00:00][arrTime=00:00:00][route= startLinkId=1 endLinkId=20 travTime=NaN dist=25000.0 linkIds=[2, 11] travelCost=539.9568034557235]]
2018-05-30 11:30:37,705 DEBUG EditTrips:245 [mode=car][depTime=undefined][travTime=00:00:00][arrTime=00:00:00][route= startLinkId=1 endLinkId=20 travTime=NaN dist=25000.0 linkIds=[2, 11] travelCost=539.9568034557235]
2018-05-30 11:30:37,705 DEBUG EditTrips:243 new trip:[[mode=car][depTime=undefined][travTime=00:00:00][arrTime=00:00:00][route= startLinkId=1 endLinkId=20 travTime=NaN dist=25000.0 linkIds=[2, 11] travelCost=539.9568034557235]]
2018-05-30 11:30:37,705 DEBUG EditTrips:245 [mode=car][depTime=undefined][travTime=00:00:00][arrTime=00:00:00][route= startLinkId=1 endLinkId=20 travTime=NaN dist=25000.0 linkIds=[2, 11] travelCost=539.9568034557235]
2018-05-30 11:30:37,705  INFO Counter:61 ParallelDuringActivityReplanner Thread1 replanned plans: 4
2018-05-30 11:30:37,705 DEBUG EditTrips:243 new trip:[[mode=car][depTime=undefined][travTime=00:00:00][arrTime=00:00:00][route= startLinkId=1 endLinkId=20 travTime=NaN dist=25000.0 linkIds=[2, 11] travelCost=539.9568034557235]]
[...]
2018-05-30 11:30:42,341 DEBUG EditTrips:245 [mode=car][depTime=undefined][travTime=00:00:00][arrTime=00:00:00][route= startLinkId=20 endLinkId=1 travTime=NaN dist=65000.0 linkIds=[21, 22, 23] travelCost=1979.8416126709865]
2018-05-30 11:30:42,342 DEBUG EditTrips:243 new trip:[[mode=car][depTime=undefined][travTime=00:00:00][arrTime=00:00:00][route= startLinkId=20 endLinkId=1 travTime=NaN dist=65000.0 linkIds=[21, 22, 23] travelCost=1979.8416126709865]]
2018-05-30 11:30:42,342 DEBUG EditTrips:245 [mode=car][depTime=undefined][travTime=00:00:00][arrTime=00:00:00][route= startLinkId=20 endLinkId=1 travTime=NaN dist=65000.0 linkIds=[21, 22, 23] travelCost=1979.8416126709865]
2018-05-30 11:30:42,343 DEBUG EditTrips:243 new trip:[[mode=car][depTime=06:38:59][travTime=00:32:59][arrTime=07:11:59][route= startLinkId=20 endLinkId=1 travTime=1979.8416126709853 dist=65000.0 linkIds=[21, 22, 23] travelCost=1979.8416126709865]]
2018-05-30 11:30:42,343 DEBUG EditTrips:245 [mode=car][depTime=06:38:59][travTime=00:32:59][arrTime=07:11:59][route= startLinkId=20 endLinkId=1 travTime=1979.8416126709853 dist=65000.0 linkIds=[21, 22, 23] travelCost=1979.8416126709865]
2018-05-30 11:30:42,393  INFO EditRoutes:322 linkIds at join: -21--22--23-
2018-05-30 11:30:42,393  INFO Counter:61 ParallelDuringLegReplanner Thread1 replanned plans: 1
2018-05-30 11:30:42,419  INFO WithinDayTravelTime:422 WithinDayTravelTime at 07:00:00 #links=1
2018-05-30 11:30:42,420  INFO QNetsimEngine:347 SIMULATION (QNetsimEngine) AT 07:00:00 : #links=1 #nodes=0
2018-05-30 11:30:42,420  INFO QSim:506 SIMULATION (NEW QSim) AT 07:00:00 : #Veh=100 lost=0 simT=3690.0s realT=0s; (s/r): Infinity
2018-05-30 11:30:42,420  INFO Gbl:54 used RAM: 353289984B = 345009kB = 336MB  free: 212416768B = 202MB  total: 565706752B = 539MB
2018-05-30 11:30:42,813 DEBUG EditTrips:243 new trip:[[mode=car][depTime=undefined][travTime=00:00:00][arrTime=00:00:00][route= startLinkId=20 endLinkId=1 travTime=NaN dist=65000.0 linkIds=[21, 22, 23] travelCost=1979.9424046076315]]
2018-05-30 11:30:42,813 DEBUG EditTrips:245 [mode=car][depTime=undefined][travTime=00:00:00][arrTime=00:00:00][route= startLinkId=20 endLinkId=1 travTime=NaN dist=65000.0 linkIds=[21, 22, 23] travelCost=1979.9424046076315]
2018-05-30 11:30:42,948  INFO WithinDayTravelTime:422 WithinDayTravelTime at 08:00:00 #links=2
2018-05-30 11:30:42,949  INFO QNetsimEngine:347 SIMULATION (QNetsimEngine) AT 08:00:00 : #links=1 #nodes=0
2018-05-30 11:30:42,949  INFO QSim:506 SIMULATION (NEW QSim) AT 08:00:00 : #Veh=5 lost=0 simT=7290.0s realT=1s; (s/r): 7290.0
2018-05-30 11:30:42,949  INFO Gbl:54 used RAM: 360963432B = 352503kB = 344MB  free: 204743320B = 195MB  total: 565706752B = 539MB
2018-05-30 11:30:43,267 DEBUG EditTrips:243 new trip:[[mode=car][depTime=undefined][travTime=00:00:00][arrTime=00:00:00][route= startLinkId=20 endLinkId=1 travTime=NaN dist=65000.0 linkIds=[21, 22, 23] travelCost=1979.9424046076315]]
2018-05-30 11:30:43,267 DEBUG EditTrips:245 [mode=car][depTime=undefined][travTime=00:00:00][arrTime=00:00:00][route= startLinkId=20 endLinkId=1 travTime=NaN dist=65000.0 linkIds=[21, 22, 23] travelCost=1979.9424046076315]
2018-05-30 11:30:43,271 DEBUG EditTrips:243 new trip:[[mode=car][depTime=undefined][travTime=00:00:00][arrTime=00:00:00][route= startLinkId=20 endLinkId=1 travTime=NaN dist=65000.0 linkIds=[21, 22, 23] travelCost=1979.9424046076315]]
2018-05-30 11:30:43,271 DEBUG EditTrips:245 [mode=car][depTime=undefined][travTime=00:00:00][arrTime=00:00:00][route= startLinkId=20 endLinkId=1 travTime=NaN dist=65000.0 linkIds=[21, 22, 23] travelCost=1979.9424046076315]
2018-05-30 11:30:43,398  INFO WithinDayTravelTime:422 WithinDayTravelTime at 09:00:00 #links=2
2018-05-30 11:30:43,398  INFO QNetsimEngine:347 SIMULATION (QNetsimEngine) AT 09:00:00 : #links=1 #nodes=0
2018-05-30 11:30:43,398  INFO QSim:506 SIMULATION (NEW QSim) AT 09:00:00 : #Veh=4 lost=0 simT=10890.0s realT=1s; (s/r): 10890.0
2018-05-30 11:30:43,398  INFO Gbl:54 used RAM: 366612712B = 358020kB = 349MB  free: 199094040B = 189MB  total: 565706752B = 539MB
2018-05-30 11:30:43,860  INFO WithinDayTravelTime:422 WithinDayTravelTime at 10:00:00 #links=1
2018-05-30 11:30:43,861  INFO QNetsimEngine:347 SIMULATION (QNetsimEngine) AT 10:00:00 : #links=0 #nodes=0
2018-05-30 11:30:43,861  INFO QSim:506 SIMULATION (NEW QSim) AT 10:00:00 : #Veh=2 lost=0 simT=14490.0s realT=2s; (s/r): 7245.0
2018-05-30 11:30:43,861  INFO Gbl:54 used RAM: 245338512B = 239588kB = 233MB  free: 322989680B = 308MB  total: 568328192B = 542MB
2018-05-30 11:30:43,867 DEBUG EditTrips:243 new trip:[[mode=car][depTime=undefined][travTime=00:00:00][arrTime=00:00:00][route= startLinkId=20 endLinkId=1 travTime=NaN dist=65000.0 linkIds=[21, 22, 23] travelCost=1979.9424046076315]]
2018-05-30 11:30:43,868 DEBUG EditTrips:245 [mode=car][depTime=undefined][travTime=00:00:00][arrTime=00:00:00][route= startLinkId=20 endLinkId=1 travTime=NaN dist=65000.0 linkIds=[21, 22, 23] travelCost=1979.9424046076315]
2018-05-30 11:30:44,120  INFO EditRoutes:322 linkIds at join: -22--23-
2018-05-30 11:30:44,120  INFO Counter:61 ParallelDuringLegReplanner Thread0 replanned plans: 1
2018-05-30 11:30:44,163  INFO EditRoutes:322 linkIds at join: -23--1--2--11--20-
2018-05-30 11:30:44,163  INFO Counter:61 ParallelDuringLegReplanner Thread1 replanned plans: 2
2018-05-30 11:30:44,214  INFO EditRoutes:322 linkIds at join: -1--2--11--20--21-
2018-05-30 11:30:44,214  INFO Counter:61 ParallelDuringLegReplanner Thread0 replanned plans: 2
2018-05-30 11:30:44,334  INFO WithinDayTravelTime:422 WithinDayTravelTime at 11:00:00 #links=3
2018-05-30 11:30:44,334  INFO QNetsimEngine:347 SIMULATION (QNetsimEngine) AT 11:00:00 : #links=1 #nodes=0
2018-05-30 11:30:44,334  INFO QSim:506 SIMULATION (NEW QSim) AT 11:00:00 : #Veh=2 lost=0 simT=18090.0s realT=2s; (s/r): 9045.0
2018-05-30 11:30:44,334  INFO Gbl:54 used RAM: 252888312B = 246961kB = 241MB  free: 315439880B = 300MB  total: 568328192B = 542MB
2018-05-30 11:30:44,556  INFO EditRoutes:322 linkIds at join: -22--23-
2018-05-30 11:30:44,606  INFO EditRoutes:322 linkIds at join: -23--1--2--11--20-
2018-05-30 11:30:44,812  INFO WithinDayTravelTime:422 WithinDayTravelTime at 12:00:00 #links=3
2018-05-30 11:30:44,812  INFO QNetsimEngine:347 SIMULATION (QNetsimEngine) AT 12:00:00 : #links=1 #nodes=0
2018-05-30 11:30:44,812  INFO QSim:506 SIMULATION (NEW QSim) AT 12:00:00 : #Veh=2 lost=0 simT=21690.0s realT=2s; (s/r): 10845.0
2018-05-30 11:30:44,813  INFO Gbl:54 used RAM: 257512728B = 251477kB = 245MB  free: 310815464B = 296MB  total: 568328192B = 542MB
2018-05-30 11:30:45,204 DEBUG EditTrips:243 new trip:[[mode=car][depTime=undefined][travTime=00:00:00][arrTime=00:00:00][route= startLinkId=20 endLinkId=1 travTime=NaN dist=65000.0 linkIds=[21, 22, 23] travelCost=1979.9424046076315]]
2018-05-30 11:30:45,205 DEBUG EditTrips:245 [mode=car][depTime=undefined][travTime=00:00:00][arrTime=00:00:00][route= startLinkId=20 endLinkId=1 travTime=NaN dist=65000.0 linkIds=[21, 22, 23] travelCost=1979.9424046076315]
2018-05-30 11:30:45,292  INFO WithinDayTravelTime:422 WithinDayTravelTime at 13:00:00 #links=2
2018-05-30 11:30:45,292  INFO QNetsimEngine:347 SIMULATION (QNetsimEngine) AT 13:00:00 : #links=1 #nodes=0
2018-05-30 11:30:45,292  INFO QSim:506 SIMULATION (NEW QSim) AT 13:00:00 : #Veh=1 lost=0 simT=25290.0s realT=3s; (s/r): 8430.0
2018-05-30 11:30:45,292  INFO Gbl:54 used RAM: 265188008B = 258972kB = 252MB  free: 303140184B = 289MB  total: 568328192B = 542MB
2018-05-30 11:30:45,506  INFO Gbl:187 Thread performance: Thread=UpdateMeanTravelTimes1  cpu-time=0.701072539sec
2018-05-30 11:30:45,506  INFO Gbl:187 Thread performance: Thread=ParallelInitialReplanner1  cpu-time=3.05315E-4sec
2018-05-30 11:30:45,506  INFO Gbl:187 Thread performance: Thread=ParallelDuringLegReplanner0  cpu-time=0.001138229sec
2018-05-30 11:30:45,506  INFO Gbl:187 Thread performance: Thread=ParallelDuringLegReplanner1  cpu-time=0.001883798sec
2018-05-30 11:30:45,506  INFO Gbl:187 Thread performance: Thread=ParallelDuringActivityReplanner1  cpu-time=0.033209774sec
2018-05-30 11:30:45,506  INFO Gbl:187 Thread performance: Thread=ParallelDuringActivityReplanner0  cpu-time=0.03572751sec
2018-05-30 11:30:45,506  INFO Gbl:187 Thread performance: Thread=class org.matsim.core.events.SimStepParallelEventsManagerImpl$ProcessEventsRunnable0  cpu-time=0.539732402sec
2018-05-30 11:30:45,506  INFO Gbl:187 Thread performance: Thread=UpdateMeanTravelTimes0  cpu-time=0.703491236sec
2018-05-30 11:30:45,507  INFO Gbl:187 Thread performance: Thread=ParallelInitialReplanner0  cpu-time=3.65051E-4sec
2018-05-30 11:30:45,506  INFO AbstractController$8:210 ### ITERATION 1 fires after mobsim event
2018-05-30 11:30:45,508  INFO ControlerListenerManagerImpl:248 calling notifyAfterMobsim on org.matsim.analysis.LegTimesControlerListener
2018-05-30 11:30:45,508  INFO LegTimesControlerListener:50 [1] average trip (probably: leg) duration is: 1727 seconds = 00:28:47
2018-05-30 11:30:45,508  INFO ControlerListenerManagerImpl:248 calling notifyAfterMobsim on org.matsim.core.scoring.EventsToActivities$1
2018-05-30 11:30:45,509  INFO ControlerListenerManagerImpl:251 [it.1] all ControlerAfterMobsimListeners called.
2018-05-30 11:30:45,509  INFO AbstractController$4:147 ### ITERATION 1 fires scoring event
2018-05-30 11:30:45,509  INFO ControlerListenerManagerImpl:183 calling notifyScoring on org.matsim.core.scoring.PlansScoringImpl
2018-05-30 11:30:45,509  INFO NewScoreAssignerImpl:36 it: 1 msaStart: null
2018-05-30 11:30:45,509  INFO ControlerListenerManagerImpl:194 [it.1] all ControlerScoringListeners called.
2018-05-30 11:30:45,510  INFO AbstractController$5:155 ### ITERATION 1 fires iteration end event
2018-05-30 11:30:45,510  INFO ControlerListenerManagerImpl:160 calling notifyIterationEnds on org.matsim.core.controler.corelisteners.EventsHandlingImpl
2018-05-30 11:30:45,510  INFO ControlerListenerManagerImpl:160 calling notifyIterationEnds on org.matsim.core.scoring.PlansScoringImpl
2018-05-30 11:30:45,510  INFO ControlerListenerManagerImpl:167 calling notifyIterationEnds on org.matsim.counts.CountsControlerListener
2018-05-30 11:30:45,510  INFO ControlerListenerManagerImpl:167 calling notifyIterationEnds on org.matsim.analysis.ModeStatsControlerListener
2018-05-30 11:30:45,511  INFO ModeStatsControlerListener:155 -- mode share of mode bike = 0.0
2018-05-30 11:30:45,511  INFO ModeStatsControlerListener:155 -- mode share of mode car = 1.0
2018-05-30 11:30:45,511  INFO ModeStatsControlerListener:155 -- mode share of mode other = 0.0
2018-05-30 11:30:45,511  INFO ModeStatsControlerListener:155 -- mode share of mode pt = 0.0
2018-05-30 11:30:45,511  INFO ModeStatsControlerListener:155 -- mode share of mode ride = 0.0
2018-05-30 11:30:45,511  INFO ModeStatsControlerListener:155 -- mode share of mode walk = 0.0
2018-05-30 11:30:45,582  INFO ControlerListenerManagerImpl:167 calling notifyIterationEnds on org.matsim.analysis.ScoreStatsControlerListener
2018-05-30 11:30:45,582  INFO ScoreStatsControlerListener:191 -- avg. score of the executed plan of each agent: -3471.85
2018-05-30 11:30:45,582  INFO ScoreStatsControlerListener:192 -- avg. score of the worst plan of each agent: -3471.85
2018-05-30 11:30:45,582  INFO ScoreStatsControlerListener:193 -- avg. of the avg. plan score per agent: -3471.85
2018-05-30 11:30:45,582  INFO ScoreStatsControlerListener:194 -- avg. score of the best plan of each agent: -3471.85
2018-05-30 11:30:45,655  INFO ControlerListenerManagerImpl:167 calling notifyIterationEnds on org.matsim.analysis.TravelDistanceStatsControlerListener
2018-05-30 11:30:45,655  INFO TravelDistanceStats:128 [TravelDistanceStats] using 2 thread(s).
2018-05-30 11:30:45,656  INFO TravelDistanceStats:141 [TravelDistanceStats] all threads finished.
2018-05-30 11:30:45,656  INFO TravelDistanceStats:161 -- average of the average leg distance per plan (executed plans only): 45450.0
2018-05-30 11:30:45,656  INFO TravelDistanceStats:162 (TravelDistanceStats takes an average over all legs where the simulation reports travelled distances. These are car legs, pt legs,
2018-05-30 11:30:45,656  INFO TravelDistanceStats:163 (and teleported legs whose route contains a distance.)
2018-05-30 11:30:45,733  INFO ControlerListenerManagerImpl:167 calling notifyIterationEnds on org.matsim.analysis.LegHistogramListener
2018-05-30 11:30:45,734  INFO LegHistogramListener:72 number of legs:	201	100%
2018-05-30 11:30:45,734  INFO LegHistogramListener:79 number of car legs:	201	100.0%
2018-05-30 11:30:45,962  INFO ControlerListenerManagerImpl:167 calling notifyIterationEnds on org.matsim.analysis.LinkStatsControlerListener
2018-05-30 11:30:45,962  INFO ControlerListenerManagerImpl:171 [it.1] all ControlerIterationEndsListeners called.
2018-05-30 11:30:46,058  INFO AbstractController:165 ### ITERATION 1 ENDS
2018-05-30 11:30:46,059  INFO AbstractController:166 ###################################################
2018-05-30 11:30:46,059  INFO MatsimRuntimeModifications:58 S H U T D O W N   ---   start shutdown.
2018-05-30 11:30:46,059  INFO ControlerListenerManagerImpl:121 calling notifyShutdown on org.matsim.core.controler.corelisteners.EventsHandlingImpl
2018-05-30 11:30:46,059  INFO ControlerListenerManagerImpl:121 calling notifyShutdown on org.matsim.core.controler.corelisteners.DumpDataAtEndImpl
2018-05-30 11:30:46,060  INFO Counter:61 [PopulationWriter] dumped person # 1
2018-05-30 11:30:46,060  INFO Counter:61 [PopulationWriter] dumped person # 2
2018-05-30 11:30:46,060  INFO Counter:61 [PopulationWriter] dumped person # 4
2018-05-30 11:30:46,060  INFO Counter:61 [PopulationWriter] dumped person # 8
2018-05-30 11:30:46,060  INFO Counter:61 [PopulationWriter] dumped person # 16
2018-05-30 11:30:46,061  INFO Counter:61 [PopulationWriter] dumped person # 32
2018-05-30 11:30:46,061  INFO Counter:61 [PopulationWriter] dumped person # 64
2018-05-30 11:30:46,062  INFO PopulationWriter:139 Population written to: test/output/org/matsim/withinday/controller/ExampleWithinDayControllerTest/testRun/output_plans.xml.gz
2018-05-30 11:30:46,062  INFO Counter:67 [PopulationWriter] dumped person # 100
2018-05-30 11:30:46,063  INFO NetworkWriter:68 Writing network to file: test/output/org/matsim/withinday/controller/ExampleWithinDayControllerTest/testRun/output_network.xml.gz...
2018-05-30 11:30:46,063  INFO NetworkWriter:71 done.
2018-05-30 11:30:46,063  INFO Config:561 setting context to [file:/root/workspace/matsim-org/matsim/385585169/matsim/]
2018-05-30 11:30:46,068  INFO VehicleWriterV1:55 Vehicles written to: test/output/org/matsim/withinday/controller/ExampleWithinDayControllerTest/testRun/output_vehicles.xml.gz
2018-05-30 11:30:46,069  INFO Counter:67 [HouseholdsWriter] dumped household # 0
2018-05-30 11:30:46,069  INFO LanesWriter:63 Using LaneDefinitionWriter20...
2018-05-30 11:30:46,069  INFO LanesWriter:72 writing to file: test/output/org/matsim/withinday/controller/ExampleWithinDayControllerTest/testRun/output_lanes.xml.gz
2018-05-30 11:30:46,086 ERROR DumpDataAtEndImpl:150 writing output events did not work; probably parameters were such that no events were generated in the final iteration
org.matsim.core.utils.io.UncheckedIOException: java.nio.file.NoSuchFileException: test/output/org/matsim/withinday/controller/ExampleWithinDayControllerTest/testRun/ITERS/it.1/1.events.xml.gz
	at org.matsim.core.controler.corelisteners.DumpDataAtEndImpl.dumpOutputEvents(DumpDataAtEndImpl.java:147)
	at org.matsim.core.controler.corelisteners.DumpDataAtEndImpl.notifyShutdown(DumpDataAtEndImpl.java:134)
	at org.matsim.core.controler.ControlerListenerManagerImpl.fireControlerShutdownEvent(ControlerListenerManagerImpl.java:122)
	at org.matsim.core.controler.AbstractController$1.shutdown(AbstractController.java:85)
	at org.matsim.core.controler.MatsimRuntimeModifications.run(MatsimRuntimeModifications.java:66)
	at org.matsim.core.controler.MatsimRuntimeModifications.run(MatsimRuntimeModifications.java:31)
	at org.matsim.core.controler.AbstractController.run(AbstractController.java:88)
	at org.matsim.core.controler.NewControler.run(NewControler.java:75)
	at org.matsim.core.controler.Controler.run(Controler.java:203)
	at org.matsim.withinday.controller.ExampleWithinDayControllerTest.testRun(ExampleWithinDayControllerTest.java:42)
	at sun.reflect.NativeMethodAccessorImpl.invoke0(Native Method)
	at sun.reflect.NativeMethodAccessorImpl.invoke(NativeMethodAccessorImpl.java:62)
	at sun.reflect.DelegatingMethodAccessorImpl.invoke(DelegatingMethodAccessorImpl.java:43)
	at java.lang.reflect.Method.invoke(Method.java:498)
	at org.junit.runners.model.FrameworkMethod$1.runReflectiveCall(FrameworkMethod.java:50)
	at org.junit.internal.runners.model.ReflectiveCallable.run(ReflectiveCallable.java:12)
	at org.junit.runners.model.FrameworkMethod.invokeExplosively(FrameworkMethod.java:47)
	at org.junit.internal.runners.statements.InvokeMethod.evaluate(InvokeMethod.java:17)
	at org.junit.rules.TestWatchman$1.evaluate(TestWatchman.java:53)
	at org.junit.runners.ParentRunner.runLeaf(ParentRunner.java:325)
	at org.junit.runners.BlockJUnit4ClassRunner.runChild(BlockJUnit4ClassRunner.java:78)
	at org.junit.runners.BlockJUnit4ClassRunner.runChild(BlockJUnit4ClassRunner.java:57)
	at org.junit.runners.ParentRunner$3.run(ParentRunner.java:290)
	at org.junit.runners.ParentRunner$1.schedule(ParentRunner.java:71)
	at org.junit.runners.ParentRunner.runChildren(ParentRunner.java:288)
	at org.junit.runners.ParentRunner.access$000(ParentRunner.java:58)
	at org.junit.runners.ParentRunner$2.evaluate(ParentRunner.java:268)
	at org.junit.runners.ParentRunner.run(ParentRunner.java:363)
	at org.apache.maven.surefire.junit4.JUnit4Provider.execute(JUnit4Provider.java:344)
	at org.apache.maven.surefire.junit4.JUnit4Provider.executeWithRerun(JUnit4Provider.java:269)
	at org.apache.maven.surefire.junit4.JUnit4Provider.executeTestSet(JUnit4Provider.java:240)
	at org.apache.maven.surefire.junit4.JUnit4Provider.invoke(JUnit4Provider.java:184)
	at org.apache.maven.surefire.booter.ForkedBooter.invokeProviderInSameClassLoader(ForkedBooter.java:286)
	at org.apache.maven.surefire.booter.ForkedBooter.runSuitesInProcess(ForkedBooter.java:240)
	at org.apache.maven.surefire.booter.ForkedBooter.main(ForkedBooter.java:121)
Caused by: java.nio.file.NoSuchFileException: test/output/org/matsim/withinday/controller/ExampleWithinDayControllerTest/testRun/ITERS/it.1/1.events.xml.gz
	at sun.nio.fs.UnixException.translateToIOException(UnixException.java:86)
	at sun.nio.fs.UnixException.rethrowAsIOException(UnixException.java:102)
	at sun.nio.fs.UnixException.rethrowAsIOException(UnixException.java:107)
	at sun.nio.fs.UnixCopyFile.copy(UnixCopyFile.java:526)
	at sun.nio.fs.UnixFileSystemProvider.copy(UnixFileSystemProvider.java:253)
	at java.nio.file.Files.copy(Files.java:1274)
	at org.matsim.core.controler.corelisteners.DumpDataAtEndImpl.dumpOutputEvents(DumpDataAtEndImpl.java:145)
	... 34 more
2018-05-30 11:30:46,087  INFO ControlerListenerManagerImpl:126 calling notifyShutdown on org.matsim.analysis.ModeStatsControlerListener
2018-05-30 11:30:46,087  INFO ControlerListenerManagerImpl:126 calling notifyShutdown on org.matsim.analysis.ScoreStatsControlerListener
2018-05-30 11:30:46,087  INFO ControlerListenerManagerImpl:126 calling notifyShutdown on org.matsim.analysis.TravelDistanceStatsControlerListener
2018-05-30 11:30:46,087  INFO ControlerListenerManagerImpl:129 all ControlerShutdownListeners called.
2018-05-30 11:30:46,087  INFO MatsimRuntimeModifications:81 S H U T D O W N   ---   shutdown completed.
2018-05-30 11:30:46,087  INFO OutputDirectoryLogging:146 closing the logfile, i.e. messages sent to the logger after this message are not written to the logfile.
2018-05-30 11:30:46,088  INFO OutputDirectoryLogging:146 closing the logfile, i.e. messages sent to the logger after this message are not written to the logfile.
