2018-05-29 07:41:50,990  INFO Gbl:59 JVM: 1.8.0_121; Oracle Corporation; mixed mode; 64-bit
2018-05-29 07:41:50,990  INFO Gbl:63 OS: Linux; 3.10.0-862.2.3.el7.x86_64; amd64
2018-05-29 07:41:50,991  INFO Gbl:66 CPU cores: 32
2018-05-29 07:41:50,991  INFO Gbl:67 max. Memory: 622.5MB (652738560B)
2018-05-29 07:41:50,991  INFO Gbl:105 MATSim-Build: r8534a19f6a6dc1129cbbcdc66403b0e275cad86b (2018-05-29 07:41:41)
2018-05-29 07:41:50,992  INFO ControlerListenerManagerImpl:107 calling notifyStartup on org.matsim.counts.CountsControlerListener
2018-05-29 07:41:50,992  INFO ControlerListenerManagerImpl:107 calling notifyStartup on org.matsim.analysis.ModeStatsControlerListener
2018-05-29 07:41:50,992 DEBUG NetworkRoutingProvider:75 requesting network routing module with routingMode=car;	mode=car
2018-05-29 07:41:50,992  INFO NetworkImpl:167  node # 1
2018-05-29 07:41:50,993  INFO NetworkImpl:167  node # 4
2018-05-29 07:41:50,993  INFO NetworkImpl:163  link # 1
2018-05-29 07:41:50,993  INFO NetworkImpl:163  link # 4
2018-05-29 07:41:50,993  INFO NetworkImpl:163  link # 16
2018-05-29 07:41:50,994  INFO ControlerListenerManagerImpl:107 calling notifyStartup on org.matsim.analysis.ScoreStatsControlerListener
2018-05-29 07:41:50,994  INFO ControlerListenerManagerImpl:110 all ControlerStartupListeners called.
2018-05-29 07:41:50,994  INFO ControlerUtils:58 config dump before iterations start
2018-05-29 07:41:50,994  INFO Config:561 setting context to [file:/root/workspace/matsim-org/matsim/385025376/matsim/]
2018-05-29 07:41:50,998  INFO ControlerUtils:62 

<?xml version="1.0" encoding="UTF-8"?>
<!DOCTYPE config SYSTEM "http://www.matsim.org/files/dtd/config_v2.dtd">
<config>
<!-- ====================================================================== -->
	<module name="JDEQSim" >
		<param name="carSize" value="7.5" />
		<param name="endTime" value="undefined" />
		<param name="flowCapacityFactor" value="1.0" />
		<param name="gapTravelSpeed" value="15.0" />
		<param name="minimumInFlowCapacity" value="1800.0" />
		<param name="squeezeTime" value="1800.0" />
		<param name="storageCapacityFactor" value="1.0" />
	</module>
<!-- ====================================================================== -->
	<module name="TimeAllocationMutator" >
		<!-- Default:true; Defines whether time mutation changes an activity's duration. -->
		<param name="mutationAffectsDuration" value="true" />
		<!-- Default:1800.0; Defines how many seconds a time mutation can maximally shift a time. -->
		<param name="mutationRange" value="1800.0" />
		<!-- false; Use individual settings for each subpopulation. If enabled but no settings are found, regular settings are uses as fallback. -->
		<param name="useIndividualSettingsForSubpopulations" value="false" />
	</module>
<!-- ====================================================================== -->
<!-- ====================================================================== -->
	<module name="changeMode" >
		<param name="ignoreCarAvailability" value="true" />
		<param name="modes" value="car,pt" />
	</module>
<!-- ====================================================================== -->
	<module name="controler" >
		<!-- Sets whether graphs showing some analyses should automatically be generated during the simulation. The generation of graphs usually takes a small amount of time that does not have any weight in big simulations, but add a significant overhead in smaller runs or in test cases where the graphical output is not even requested. -->
		<param name="createGraphs" value="false" />
		<!-- true if at the end of a run, plans, network, config etc should be dumped to a file -->
		<param name="dumpDataAtEnd" value="false" />
		<!-- Default=false. If enabled, the router takes travel times needed for turning moves into account. Cannot be used if the (Fast)AStarLandmarks routing or TravelTimeCalculator.separateModes is enabled. -->
		<param name="enableLinkToLinkRouting" value="false" />
		<!-- Default=xml; Specifies the file format for writing events. Currently supported: xml.
		Multiple values can be specified separated by commas (','). -->
		<param name="eventsFileFormat" value="xml" />
		<!-- Default=0;  -->
		<param name="firstIteration" value="0" />
		<!-- Default=1000;  -->
		<param name="lastIteration" value="1" />
		<!-- Defines which mobility simulation will be used. Currently supported: qsim JDEQSim 
		Depending on the chosen mobsim, you'll have to add additional config modules to configure the corresponding mobsim.
		For 'qsim', add a module 'qsim' to the config. -->
		<param name="mobsim" value="qsim" />
		<param name="outputDirectory" value="test/output/org/matsim/core/controler/MobsimListenerTest/testRunMobsim_listenerSingleton/" />
		<!-- Possible values: failIfDirectoryExists, overwriteExistingFiles, deleteDirectoryIfExists -->
		<param name="overwriteFiles" value="failIfDirectoryExists" />
		<!-- The type of routing (least cost path) algorithm used, may have the values: Dijkstra, FastDijkstra, AStarLandmarks or FastAStarLandmarks -->
		<param name="routingAlgorithmType" value="Dijkstra" />
		<!-- An identifier for the current run which is used as prefix for output files and mentioned in output xml files etc. -->
		<param name="runId" value="null" />
		<!-- Comma-separated list of visualizer output file formats. `transims', `googleearth', and `otfvis'. -->
		<param name="snapshotFormat" value="transims" />
		<!-- iterationNumber % writeEventsInterval == 0 defines in which iterations events are written to a file. `0' disables events writing completely. -->
		<param name="writeEventsInterval" value="0" />
		<!-- iterationNumber % writePlansInterval == 0 defines (hopefully) in which iterations plans are written to a file. `0' disables plans writing completely.  Some plans in early iterations are always written -->
		<param name="writePlansInterval" value="0" />
		<!-- iterationNumber % writeSnapshotsInterval == 0 defines in which iterations snapshots are written to a file. `0' disables snapshots writing completely -->
		<param name="writeSnapshotsInterval" value="1" />
	</module>
<!-- ====================================================================== -->
	<module name="counts" >
		<!-- Transport modes that will be respected for the counts comparison. 'car' is default, which includes also bussed from the pt simulation module. Use this parameter in combination with 'filterModes' = true! -->
		<param name="analyzedModes" value="car" />
		<!-- Specifies over how many iterations the link volumes should be averaged that are used for the counts comparison. Use 1 or 0 to only use the link volumes of a single iteration. This values cannot be larger than the value specified for writeCountsInterval -->
		<param name="averageCountsOverIterations" value="5" />
		<!-- factor by which to re-scale the simulated values.  necessary when simulation runs with something different from 100%.  needs to be adapted manually -->
		<param name="countsScaleFactor" value="1.0" />
		<!-- distance to distanceFilterCenterNode to include counting stations. The unit of distance is the Euclidean distance implied by the coordinate system -->
		<param name="distanceFilter" value="null" />
		<!-- node id for center node of distance filter -->
		<param name="distanceFilterCenterNode" value="null" />
		<!-- If true, link counts from legs performed on modes not included in the 'analyzedModes' parameter are ignored. -->
		<param name="filterModes" value="false" />
		<!-- The Coordinates Reference System in which the coordinates are expressed in the input file. At import, the coordinates will be converted to the coordinate system defined in "global", and willbe converted back at export. If not specified, no conversion happens. -->
		<param name="inputCRS" value="null" />
		<!-- input file name to counts package -->
		<param name="inputCountsFile" value="null" />
		<!-- possible values: `html', `kml', `txt', `all' -->
		<param name="outputformat" value="txt" />
		<!-- Specifies how often the counts comparison should be calculated and written. -->
		<param name="writeCountsInterval" value="10" />
	</module>
<!-- ====================================================================== -->
	<module name="facilities" >
		<!-- If set to 'true', empty activity option will be created. -->
		<param name="addEmptyActivityOption" value="false" />
		<!-- Default is 'true'. In the case that a facility has no link assigned, the ActivityFacility can be assigned to the closest link. If there should be only one ActivityFacility per link and if no link-assignment should be done, set to 'false'.This will create a new ActivityFacility at the coordinate and the facility will not be assigned to a link. -->
		<param name="assigningLinksToFacilitiesIfMissing" value="true" />
		<!-- If set to 'true', opening time will be assigned to activity facilities from ActivityParams. Default is false. This will NOT override option 'addEmptyActivityOption'. -->
		<param name="assigningOpeningTime" value="false" />
		<!-- This defines how facilities should be created. Possible values: none fromFile setInScenario onePerActivityLocationInPlansFile  -->
		<param name="facilitiesSource" value="fromFile" />
		<!-- A prefix to be used in activityFacility id. -->
		<param name="idPrefix" value="" />
		<!-- The Coordinates Reference System in which the coordinates are expressed in the input file. At import, the coordinates will be converted to the coordinate system defined in "global", and willbe converted back at export. If not specified, no conversion happens. -->
		<param name="inputCRS" value="null" />
		<param name="inputFacilitiesFile" value="facilities.xml" />
		<param name="inputFacilityAttributesFile" value="null" />
		<!-- Sets whether all activities on a link should be collected within one ActivityFacility. Default is 'true'. If set to 'false', for each coordinate found in the population's activities a separate ActivityFacility will be created. -->
		<param name="oneFacilityPerLink" value="true" />
		<!-- If set to 'true' (which is the default), the link and coordinate attributes are replaced by null reference in the activities, as this information is now available via the facility. -->
		<param name="removingLinksAndCoordinates" value="true" />
	</module>
<!-- ====================================================================== -->
	<module name="global" >
		<param name="coordinateSystem" value="Atlantis" />
		<param name="insistingOnDeprecatedConfigVersion" value="true" />
		<!-- "global" number of threads.  This number is used, e.g., for replanning, but NOT in the mobsim.  This can typically be set to as many cores as you have available, or possibly even slightly more. -->
		<param name="numberOfThreads" value="2" />
		<param name="randomSeed" value="4711" />
	</module>
<!-- ====================================================================== -->
	<module name="households" >
		<param name="inputFile" value="null" />
		<param name="inputHouseholdAttributesFile" value="null" />
	</module>
<!-- ====================================================================== -->
	<module name="linkStats" >
		<!-- Specifies over how many iterations the link volumes should be averaged that are used for the link statistics. Use 1 or 0 to only use the link volumes of a single iteration. This values cannot be larger than the value specified for writeLinkStatsInterval -->
		<param name="averageLinkStatsOverIterations" value="5" />
		<!-- Specifies how often the link stats should be calculated and written. Use 0 to disable the generation of link stats. -->
		<param name="writeLinkStatsInterval" value="10" />
	</module>
<!-- ====================================================================== -->
	<module name="network" >
		<!-- The Coordinates Reference System in which the coordinates are expressed in the input file. At import, the coordinates will be converted to the coordinate system defined in "global", and willbe converted back at export. If not specified, no conversion happens. -->
		<param name="inputCRS" value="null" />
		<param name="inputChangeEventsFile" value="null" />
		<param name="inputNetworkFile" value="network.xml" />
		<param name="laneDefinitionsFile" value="null" />
		<param name="timeVariantNetwork" value="false" />
	</module>
<!-- ====================================================================== -->
	<module name="parallelEventHandling" >
		<!-- Estimated number of events during mobsim run. An optional optimization hint for the framework. -->
		<param name="estimatedNumberOfEvents" value="null" />
		<!-- Number of threads for parallel events handler. _null_ means the framework decides by itself. 0 is currently not possible. -->
		<param name="numberOfThreads" value="null" />
		<!-- If enabled, each event handler is assigned to its own thread. Note that enabling this feature disabled the numberOfThreads option! This feature is still experimental! -->
		<param name="oneThreadPerHandler" value="false" />
		<!-- If enabled, it is ensured that all events that are created during a time step of the mobility simulation are processed before the next time step is simulated. E.g. neccessary when within-day replanning is used. -->
		<param name="synchronizeOnSimSteps" value="true" />
	</module>
<!-- ====================================================================== -->
	<module name="planCalcScore" >
		<!-- logit model scale parameter. default: 1.  Has name and default value for historical reasons (see Bryan Raney's phd thesis). -->
		<param name="BrainExpBeta" value="2.0" />
		<param name="PathSizeLogitBeta" value="1.0" />
		<!-- fraction of iterations at which MSA score averaging is started. The matsim theory department suggests to use this together with switching off choice set innovation (where a similar switch exists), but it has not been tested yet. -->
		<param name="fractionOfIterationsToStartScoreMSA" value="null" />
		<!-- new_score = (1-learningRate)*old_score + learningRate * score_from_mobsim.  learning rates close to zero emulate score averaging, but slow down initial convergence -->
		<param name="learningRate" value="1.0" />
		<!-- There used to be a plateau between duration=0 and duration=zeroUtilityDuration. This caused durations to evolve to zero once they were below zeroUtilityDuration, causing problems.  Only use this switch if you need to be backwards compatible with some old results.  (changed nov'13) -->
		<param name="usingOldScoringBelowZeroUtilityDuration" value="false" />
		<!-- write a plans file in each iteration directory which contains what each agent actually did, and the score it received. -->
		<param name="writeExperiencedPlans" value="false" />
		<parameterset type="scoringParameters" >
			<param name="earlyDeparture" value="-0.0" />
			<param name="lateArrival" value="-18.0" />
			<param name="marginalUtilityOfMoney" value="1.0" />
			<param name="performing" value="6.0" />
			<param name="subpopulation" value="null" />
			<param name="utilityOfLineSwitch" value="-1.0" />
			<param name="waiting" value="-0.0" />
			<param name="waitingPt" value="-6.0" />
			<parameterset type="activityParams" >
				<param name="activityType" value="dummy" />
				<param name="closingTime" value="undefined" />
				<param name="earliestEndTime" value="undefined" />
				<param name="latestStartTime" value="undefined" />
				<param name="minimalDuration" value="undefined" />
				<param name="openingTime" value="undefined" />
				<param name="priority" value="1.0" />
				<param name="scoringThisActivityAtAll" value="false" />
				<!-- typical duration of activity.  needs to be defined and non-zero.  in sec. -->
				<param name="typicalDuration" value="02:00:00" />
				<!-- method to compute score at typical duration.  Options: | uniform | relative | Use uniform for backwards compatibility (all activities same score; higher proba to drop long acts). -->
				<param name="typicalDurationScoreComputation" value="relative" />
			</parameterset>
			<parameterset type="activityParams" >
				<param name="activityType" value="car interaction" />
				<param name="closingTime" value="undefined" />
				<param name="earliestEndTime" value="undefined" />
				<param name="latestStartTime" value="undefined" />
				<param name="minimalDuration" value="undefined" />
				<param name="openingTime" value="undefined" />
				<param name="priority" value="1.0" />
				<param name="scoringThisActivityAtAll" value="false" />
				<!-- typical duration of activity.  needs to be defined and non-zero.  in sec. -->
				<param name="typicalDuration" value="undefined" />
				<!-- method to compute score at typical duration.  Options: | uniform | relative | Use uniform for backwards compatibility (all activities same score; higher proba to drop long acts). -->
				<param name="typicalDurationScoreComputation" value="relative" />
			</parameterset>
			<parameterset type="activityParams" >
				<param name="activityType" value="pt interaction" />
				<param name="closingTime" value="undefined" />
				<param name="earliestEndTime" value="undefined" />
				<param name="latestStartTime" value="undefined" />
				<param name="minimalDuration" value="undefined" />
				<param name="openingTime" value="undefined" />
				<param name="priority" value="1.0" />
				<param name="scoringThisActivityAtAll" value="false" />
				<!-- typical duration of activity.  needs to be defined and non-zero.  in sec. -->
				<param name="typicalDuration" value="undefined" />
				<!-- method to compute score at typical duration.  Options: | uniform | relative | Use uniform for backwards compatibility (all activities same score; higher proba to drop long acts). -->
				<param name="typicalDurationScoreComputation" value="relative" />
			</parameterset>
			<parameterset type="activityParams" >
				<param name="activityType" value="bike interaction" />
				<param name="closingTime" value="undefined" />
				<param name="earliestEndTime" value="undefined" />
				<param name="latestStartTime" value="undefined" />
				<param name="minimalDuration" value="undefined" />
				<param name="openingTime" value="undefined" />
				<param name="priority" value="1.0" />
				<param name="scoringThisActivityAtAll" value="false" />
				<!-- typical duration of activity.  needs to be defined and non-zero.  in sec. -->
				<param name="typicalDuration" value="undefined" />
				<!-- method to compute score at typical duration.  Options: | uniform | relative | Use uniform for backwards compatibility (all activities same score; higher proba to drop long acts). -->
				<param name="typicalDurationScoreComputation" value="relative" />
			</parameterset>
			<parameterset type="activityParams" >
				<param name="activityType" value="other interaction" />
				<param name="closingTime" value="undefined" />
				<param name="earliestEndTime" value="undefined" />
				<param name="latestStartTime" value="undefined" />
				<param name="minimalDuration" value="undefined" />
				<param name="openingTime" value="undefined" />
				<param name="priority" value="1.0" />
				<param name="scoringThisActivityAtAll" value="false" />
				<!-- typical duration of activity.  needs to be defined and non-zero.  in sec. -->
				<param name="typicalDuration" value="undefined" />
				<!-- method to compute score at typical duration.  Options: | uniform | relative | Use uniform for backwards compatibility (all activities same score; higher proba to drop long acts). -->
				<param name="typicalDurationScoreComputation" value="relative" />
			</parameterset>
			<parameterset type="activityParams" >
				<param name="activityType" value="walk interaction" />
				<param name="closingTime" value="undefined" />
				<param name="earliestEndTime" value="undefined" />
				<param name="latestStartTime" value="undefined" />
				<param name="minimalDuration" value="undefined" />
				<param name="openingTime" value="undefined" />
				<param name="priority" value="1.0" />
				<param name="scoringThisActivityAtAll" value="false" />
				<!-- typical duration of activity.  needs to be defined and non-zero.  in sec. -->
				<param name="typicalDuration" value="undefined" />
				<!-- method to compute score at typical duration.  Options: | uniform | relative | Use uniform for backwards compatibility (all activities same score; higher proba to drop long acts). -->
				<param name="typicalDurationScoreComputation" value="relative" />
			</parameterset>
			<parameterset type="activityParams" >
				<param name="activityType" value="h" />
				<param name="closingTime" value="undefined" />
				<param name="earliestEndTime" value="undefined" />
				<param name="latestStartTime" value="undefined" />
				<param name="minimalDuration" value="08:00:00" />
				<param name="openingTime" value="undefined" />
				<param name="priority" value="1.0" />
				<param name="scoringThisActivityAtAll" value="true" />
				<!-- typical duration of activity.  needs to be defined and non-zero.  in sec. -->
				<param name="typicalDuration" value="12:00:00" />
				<!-- method to compute score at typical duration.  Options: | uniform | relative | Use uniform for backwards compatibility (all activities same score; higher proba to drop long acts). -->
				<param name="typicalDurationScoreComputation" value="relative" />
			</parameterset>
			<parameterset type="activityParams" >
				<param name="activityType" value="w" />
				<param name="closingTime" value="18:00:00" />
				<param name="earliestEndTime" value="undefined" />
				<param name="latestStartTime" value="09:00:00" />
				<param name="minimalDuration" value="06:00:00" />
				<param name="openingTime" value="07:00:00" />
				<param name="priority" value="1.0" />
				<param name="scoringThisActivityAtAll" value="true" />
				<!-- typical duration of activity.  needs to be defined and non-zero.  in sec. -->
				<param name="typicalDuration" value="08:00:00" />
				<!-- method to compute score at typical duration.  Options: | uniform | relative | Use uniform for backwards compatibility (all activities same score; higher proba to drop long acts). -->
				<param name="typicalDurationScoreComputation" value="relative" />
			</parameterset>
			<parameterset type="modeParams" >
				<!-- [utils] alternative-specific constant.  no guarantee that this is used anywhere. default=0 to be backwards compatible for the time being -->
				<param name="constant" value="0.0" />
				<!-- [utils/m] utility of walking per m, normally negative.  this is on top of the time (dis)utility. -->
				<param name="marginalUtilityOfDistance_util_m" value="0.0" />
				<!-- [utils/hr] additional marginal utility of traveling.  normally negative.  this comes on top of the opportunity cost of time -->
				<param name="marginalUtilityOfTraveling_util_hr" value="-6.0" />
				<param name="mode" value="car" />
				<!-- [unit_of_money/m] conversion of distance into money. Normally negative. -->
				<param name="monetaryDistanceRate" value="0.0" />
			</parameterset>
			<parameterset type="modeParams" >
				<!-- [utils] alternative-specific constant.  no guarantee that this is used anywhere. default=0 to be backwards compatible for the time being -->
				<param name="constant" value="0.0" />
				<!-- [utils/m] utility of walking per m, normally negative.  this is on top of the time (dis)utility. -->
				<param name="marginalUtilityOfDistance_util_m" value="0.0" />
				<!-- [utils/hr] additional marginal utility of traveling.  normally negative.  this comes on top of the opportunity cost of time -->
				<param name="marginalUtilityOfTraveling_util_hr" value="-6.0" />
				<param name="mode" value="pt" />
				<!-- [unit_of_money/m] conversion of distance into money. Normally negative. -->
				<param name="monetaryDistanceRate" value="0.0" />
			</parameterset>
			<parameterset type="modeParams" >
				<!-- [utils] alternative-specific constant.  no guarantee that this is used anywhere. default=0 to be backwards compatible for the time being -->
				<param name="constant" value="0.0" />
				<!-- [utils/m] utility of walking per m, normally negative.  this is on top of the time (dis)utility. -->
				<param name="marginalUtilityOfDistance_util_m" value="0.0" />
				<!-- [utils/hr] additional marginal utility of traveling.  normally negative.  this comes on top of the opportunity cost of time -->
				<param name="marginalUtilityOfTraveling_util_hr" value="-6.0" />
				<param name="mode" value="walk" />
				<!-- [unit_of_money/m] conversion of distance into money. Normally negative. -->
				<param name="monetaryDistanceRate" value="0.0" />
			</parameterset>
			<parameterset type="modeParams" >
				<!-- [utils] alternative-specific constant.  no guarantee that this is used anywhere. default=0 to be backwards compatible for the time being -->
				<param name="constant" value="0.0" />
				<!-- [utils/m] utility of walking per m, normally negative.  this is on top of the time (dis)utility. -->
				<param name="marginalUtilityOfDistance_util_m" value="0.0" />
				<!-- [utils/hr] additional marginal utility of traveling.  normally negative.  this comes on top of the opportunity cost of time -->
				<param name="marginalUtilityOfTraveling_util_hr" value="-6.0" />
				<param name="mode" value="bike" />
				<!-- [unit_of_money/m] conversion of distance into money. Normally negative. -->
				<param name="monetaryDistanceRate" value="0.0" />
			</parameterset>
			<parameterset type="modeParams" >
				<!-- [utils] alternative-specific constant.  no guarantee that this is used anywhere. default=0 to be backwards compatible for the time being -->
				<param name="constant" value="0.0" />
				<!-- [utils/m] utility of walking per m, normally negative.  this is on top of the time (dis)utility. -->
				<param name="marginalUtilityOfDistance_util_m" value="0.0" />
				<!-- [utils/hr] additional marginal utility of traveling.  normally negative.  this comes on top of the opportunity cost of time -->
				<param name="marginalUtilityOfTraveling_util_hr" value="-6.0" />
				<param name="mode" value="ride" />
				<!-- [unit_of_money/m] conversion of distance into money. Normally negative. -->
				<param name="monetaryDistanceRate" value="0.0" />
			</parameterset>
			<parameterset type="modeParams" >
				<!-- [utils] alternative-specific constant.  no guarantee that this is used anywhere. default=0 to be backwards compatible for the time being -->
				<param name="constant" value="0.0" />
				<!-- [utils/m] utility of walking per m, normally negative.  this is on top of the time (dis)utility. -->
				<param name="marginalUtilityOfDistance_util_m" value="0.0" />
				<!-- [utils/hr] additional marginal utility of traveling.  normally negative.  this comes on top of the opportunity cost of time -->
				<param name="marginalUtilityOfTraveling_util_hr" value="-6.0" />
				<param name="mode" value="other" />
				<!-- [unit_of_money/m] conversion of distance into money. Normally negative. -->
				<param name="monetaryDistanceRate" value="0.0" />
			</parameterset>
		</parameterset>
	</module>
<!-- ====================================================================== -->
	<module name="plans" >
		<!-- String: minOfDurationAndEndTime tryEndTimeThenDuration endTimeOnly. Anything besides minOfDurationAndEndTime will internally use a different (simpler) version of the TimeAllocationMutator. -->
		<param name="activityDurationInterpretation" value="tryEndTimeThenDuration" />
		<!-- The Coordinates Reference System in which the coordinates are expressed in the input file. At import, the coordinates will be converted to the coordinate system defined in "global", and willbe converted back at export. If not specified, no conversion happens. -->
		<param name="inputCRS" value="null" />
		<!-- Path to a file containing person attributes (required file format: ObjectAttributes). -->
		<param name="inputPersonAttributesFile" value="null" />
		<param name="inputPlansFile" value="plans1.xml" />
		<!-- Defines how routes are stored in memory. Currently supported: LinkNetworkRoute, CompressedNetworkRoute. -->
		<param name="networkRouteType" value="LinkNetworkRoute" />
		<!-- (not tested) will remove plan attributes that are presumably not used, such as activityStartTime. default=false -->
		<param name="removingUnnecessaryPlanAttributes" value="false" />
		<!-- Name of the (Object)Attribute defining the subpopulation to which pertains a Person (as freight, through traffic, etc.). The attribute must be of String type.  Change away from default only in desperate situations. -->
		<param name="subpopulationAttributeName" value="subpopulation" />
	</module>
<!-- ====================================================================== -->
	<module name="planscalcroute" >
		<!-- All the modes for which the router is supposed to generate network routes (like car) -->
		<param name="networkModes" value="car" />
		<parameterset type="teleportedModeParameters" >
			<param name="beelineDistanceFactor" value="1.3" />
			<param name="mode" value="bike" />
			<!-- Free-speed factor for a teleported mode. Travel time = teleportedModeFreespeedFactor * <freespeed car travel time>. Insert a line like this for every such mode. Please do not set teleportedModeFreespeedFactor as well as teleportedModeSpeed for the same mode, but if you do, +teleportedModeFreespeedFactor wins over teleportedModeSpeed. -->
			<param name="teleportedModeFreespeedFactor" value="null" />
			<!-- Speed for a teleported mode. Travel time = (<beeline distance> * beelineDistanceFactor) / teleportedModeSpeed. Insert a line like this for every such mode. -->
			<param name="teleportedModeSpeed" value="4.166666666666667" />
		</parameterset>
		<parameterset type="teleportedModeParameters" >
			<param name="beelineDistanceFactor" value="1.3" />
			<param name="mode" value="walk" />
			<!-- Free-speed factor for a teleported mode. Travel time = teleportedModeFreespeedFactor * <freespeed car travel time>. Insert a line like this for every such mode. Please do not set teleportedModeFreespeedFactor as well as teleportedModeSpeed for the same mode, but if you do, +teleportedModeFreespeedFactor wins over teleportedModeSpeed. -->
			<param name="teleportedModeFreespeedFactor" value="null" />
			<!-- Speed for a teleported mode. Travel time = (<beeline distance> * beelineDistanceFactor) / teleportedModeSpeed. Insert a line like this for every such mode. -->
			<param name="teleportedModeSpeed" value="0.8333333333333333" />
		</parameterset>
		<parameterset type="teleportedModeParameters" >
			<param name="beelineDistanceFactor" value="1.3" />
			<param name="mode" value="access_walk" />
			<!-- Free-speed factor for a teleported mode. Travel time = teleportedModeFreespeedFactor * <freespeed car travel time>. Insert a line like this for every such mode. Please do not set teleportedModeFreespeedFactor as well as teleportedModeSpeed for the same mode, but if you do, +teleportedModeFreespeedFactor wins over teleportedModeSpeed. -->
			<param name="teleportedModeFreespeedFactor" value="null" />
			<!-- Speed for a teleported mode. Travel time = (<beeline distance> * beelineDistanceFactor) / teleportedModeSpeed. Insert a line like this for every such mode. -->
			<param name="teleportedModeSpeed" value="0.8333333333333333" />
		</parameterset>
		<parameterset type="teleportedModeParameters" >
			<param name="beelineDistanceFactor" value="1.3" />
			<param name="mode" value="egress_walk" />
			<!-- Free-speed factor for a teleported mode. Travel time = teleportedModeFreespeedFactor * <freespeed car travel time>. Insert a line like this for every such mode. Please do not set teleportedModeFreespeedFactor as well as teleportedModeSpeed for the same mode, but if you do, +teleportedModeFreespeedFactor wins over teleportedModeSpeed. -->
			<param name="teleportedModeFreespeedFactor" value="null" />
			<!-- Speed for a teleported mode. Travel time = (<beeline distance> * beelineDistanceFactor) / teleportedModeSpeed. Insert a line like this for every such mode. -->
			<param name="teleportedModeSpeed" value="0.8333333333333333" />
		</parameterset>
		<parameterset type="teleportedModeParameters" >
			<param name="beelineDistanceFactor" value="1.3" />
			<param name="mode" value="undefined" />
			<!-- Free-speed factor for a teleported mode. Travel time = teleportedModeFreespeedFactor * <freespeed car travel time>. Insert a line like this for every such mode. Please do not set teleportedModeFreespeedFactor as well as teleportedModeSpeed for the same mode, but if you do, +teleportedModeFreespeedFactor wins over teleportedModeSpeed. -->
			<param name="teleportedModeFreespeedFactor" value="null" />
			<!-- Speed for a teleported mode. Travel time = (<beeline distance> * beelineDistanceFactor) / teleportedModeSpeed. Insert a line like this for every such mode. -->
			<param name="teleportedModeSpeed" value="13.88888888888889" />
		</parameterset>
		<parameterset type="teleportedModeParameters" >
			<param name="beelineDistanceFactor" value="1.3" />
			<param name="mode" value="ride" />
			<!-- Free-speed factor for a teleported mode. Travel time = teleportedModeFreespeedFactor * <freespeed car travel time>. Insert a line like this for every such mode. Please do not set teleportedModeFreespeedFactor as well as teleportedModeSpeed for the same mode, but if you do, +teleportedModeFreespeedFactor wins over teleportedModeSpeed. -->
			<param name="teleportedModeFreespeedFactor" value="1.0" />
			<!-- Speed for a teleported mode. Travel time = (<beeline distance> * beelineDistanceFactor) / teleportedModeSpeed. Insert a line like this for every such mode. -->
			<param name="teleportedModeSpeed" value="null" />
		</parameterset>
		<parameterset type="teleportedModeParameters" >
			<param name="beelineDistanceFactor" value="1.3" />
			<param name="mode" value="pt" />
			<!-- Free-speed factor for a teleported mode. Travel time = teleportedModeFreespeedFactor * <freespeed car travel time>. Insert a line like this for every such mode. Please do not set teleportedModeFreespeedFactor as well as teleportedModeSpeed for the same mode, but if you do, +teleportedModeFreespeedFactor wins over teleportedModeSpeed. -->
			<param name="teleportedModeFreespeedFactor" value="2.0" />
			<!-- Speed for a teleported mode. Travel time = (<beeline distance> * beelineDistanceFactor) / teleportedModeSpeed. Insert a line like this for every such mode. -->
			<param name="teleportedModeSpeed" value="null" />
		</parameterset>
	</module>
<!-- ====================================================================== -->
	<module name="ptCounts" >
		<!-- factor by which to re-scale the simulated values.  necessary when simulation runs with something different from 100%.  needs to be adapted manually -->
		<param name="countsScaleFactor" value="1.0" />
		<!-- distance to distanceFilterCenterNode to include counting stations. The unit of distance is the Euclidean distance implied by the coordinate system -->
		<param name="distanceFilter" value="null" />
		<!-- node id for center node of distance filter -->
		<param name="distanceFilterCenterNode" value="null" />
		<!-- input file containing the alighting (getting off) counts for pt -->
		<param name="inputAlightCountsFile" value="null" />
		<!-- input file containing the boarding (getting on) counts for pt -->
		<param name="inputBoardCountsFile" value="null" />
		<!-- input file containing the occupancy counts for pt -->
		<param name="inputOccupancyCountsFile" value="null" />
		<!-- possible values: `html', `kml', `txt', `all' -->
		<param name="outputformat" value="null" />
		<!-- every how many iterations (starting with 0) counts comparisons are generated -->
		<param name="ptCountsInterval" value="10" />
	</module>
<!-- ====================================================================== -->
	<module name="qsim" >
		<!-- If set to true, creates a vehicle for each person corresponding to every network mode. However, this will be overridden if vehicle source is fromVehiclesData. -->
		<param name="creatingVehiclesForAllNetworkModes" value="true" />
		<param name="endTime" value="00:00:00" />
		<param name="flowCapacityFactor" value="1.0" />
		<!-- decides if waiting vehicles enter the network after or before the already driving vehicles were moved. Default: false -->
		<param name="insertingWaitingVehiclesBeforeDrivingVehicles" value="false" />
		<!-- If link dynamics is set as SeepageQ, set to false if all seep modes should perform seepage. Default is true (better option). -->
		<param name="isRestrictingSeepage" value="true" />
		<!-- If link dynamics is set as SeepageQ, set to true if seep mode do not consumes any space on the link. Default is false. -->
		<param name="isSeepModeStorageFree" value="false" />
		<!-- default: FIFO; options: FIFO PassingQ SeepageQ -->
		<param name="linkDynamics" value="FIFO" />
		<!-- The (initial) width of the links of the network. Use positive floating point values. This is used only for visualisation. -->
		<param name="linkWidth" value="30.0" />
		<!-- [comma-separated list] Defines which modes are congested modes. Technically, these are the modes that the departure handler of the netsimengine handles.  Effective cell size, effective lane width, flow capacity factor, and storage capacity factor need to be set with diligence.  Need to be vehicular modes to make sense. -->
		<param name="mainMode" value="car" />
		<!-- Shortens a link in the visualization, i.e. its start and end point are moved into towards the center. Does not affect traffic flow.  -->
		<param name="nodeOffset" value="0.0" />
		<!-- Number of threads used for the QSim.  Note that this setting is independent from the "global" threads setting.  In contrast to earlier versions, the non-parallel special version is no longer there. -->
		<param name="numberOfThreads" value="1" />
		<!-- Boolean. `true': stuck vehicles are removed, aborting the plan; `false': stuck vehicles are forced into the next link. `false' is probably the better choice. -->
		<param name="removeStuckVehicles" value="false" />
		<!-- If link dynamics is set as SeepageQ, set a seep mode. Default is bike. -->
		<param name="seepMode" value="bike" />
		<!-- Possible values: minOfEndtimeAndMobsimFinished, onlyUseEndtime -->
		<param name="simEndtimeInterpretation" value="null" />
		<!-- Options: maxOfStarttimeAndEarliestActivityEnd onlyUseStarttime  -->
		<param name="simStarttimeInterpretation" value="maxOfStarttimeAndEarliestActivityEnd" />
		<!-- snapshotStyle. One of: equiDist queue withHoles withHolesAndShowHoles kinematicWaves  -->
		<param name="snapshotStyle" value="equiDist" />
		<param name="snapshotperiod" value="00:00:00" />
		<param name="startTime" value="00:00:00" />
		<param name="storageCapacityFactor" value="1.0" />
		<!-- time in seconds.  Time after which the frontmost vehicle on a link is called `stuck' if it does not move. -->
		<param name="stuckTime" value="10.0" />
		<param name="timeStepSize" value="00:00:01" />
		<!-- options: queue withHoles kinematicWaves  -->
		<param name="trafficDynamics" value="queue" />
		<!-- Set this parameter to true if lanes should be used, false if not. -->
		<param name="useLanes" value="false" />
		<!-- If a route does not reference a vehicle, agents will use the vehicle with the same id as their own. -->
		<param name="usePersonIdForMissingVehicleId" value="true" />
		<!-- If false, the qsim accumulates fractional flows up to one flow unit in every time step.  If true, flows are updated only if an agent wants to enter the link or an agent is added to buffer. Default is true. -->
		<param name="usingFastCapacityUpdate" value="true" />
		<!-- if the qsim should use as many runners as there are threads (Christoph's dissertation version) or more of them, together with a thread pool (seems to be faster in some situations, but is not tested). -->
		<param name="usingThreadpool" value="true" />
		<!-- Defines what happens if an agent wants to depart, but the specified vehicle is not available. One of: teleport wait exception  -->
		<param name="vehicleBehavior" value="teleport" />
		<!-- If vehicles should all be the same default vehicle, or come from the vehicles file, or something else.  Possible values:  defaultVehicle modeVehicleTypesFromVehiclesData fromVehiclesData -->
		<param name="vehiclesSource" value="defaultVehicle" />
	</module>
<!-- ====================================================================== -->
	<module name="scenario" >
	</module>
<!-- ====================================================================== -->
	<module name="strategy" >
		<!-- the external executable will be called with a config file as argument.  This is the pathname to a possible skeleton config, to which additional information will be added.  Can be null. -->
		<param name="ExternalExeConfigTemplate" value="null" />
		<!-- time out value (in seconds) after which matsim will consider the external strategy as failed -->
		<param name="ExternalExeTimeOut" value="3600" />
		<!-- root directory for temporary files generated by the external executable. Provided as a service; I don't think this is used by MATSim. -->
		<param name="ExternalExeTmpFileRootDir" value="null" />
		<!-- fraction of iterations where innovative strategies are switched off.  Something link 0.8 should be good.  E.g. if you run from iteration 400 to iteration 500, innovation is switched off at iteration 480 -->
		<param name="fractionOfIterationsToDisableInnovation" value="Infinity" />
		<!-- maximum number of plans per agent.  ``0'' means ``infinity''.  Currently (2010), ``5'' is a good number -->
		<param name="maxAgentPlanMemorySize" value="5" />
		<!-- strategyName of PlanSelector for plans removal.  Possible defaults: WorstPlanSelector SelectRandom SelectExpBetaForRemoval ChangeExpBetaForRemoval PathSizeLogitSelectorForRemoval . The current default, WorstPlanSelector is not a good choice from a discrete choice theoretical perspective. Alternatives, however, have not been systematically tested. kai, feb'12 -->
		<param name="planSelectorForRemoval" value="WorstPlanSelector" />
		<parameterset type="strategysettings" >
			<!-- iteration after which strategy will be disabled.  most useful for ``innovative'' strategies (new routes, new times, ...). Normally, better use fractionOfIterationsToDisableInnovation -->
			<param name="disableAfterIteration" value="-1" />
			<!-- path to external executable (if applicable) -->
			<param name="executionPath" value="null" />
			<!-- strategyName of strategy.  Possible default names: SelectRandomBestScoreKeepLastSelectedChangeExpBetaSelectExpBetaSelectPathSizeLogit (selectors), ReRoute TimeAllocationMutator ChangeLegMode TimeAllocationMutator_ReRoute ChangeSingleLegMode ChangeSingleTripMode SubtourModeChoice ChangeTripMode TripSubtourModeChoice  (innovative strategies). -->
			<param name="strategyName" value="BestScore" />
			<!-- subpopulation to which the strategy applies. "null" refers to the default population, that is, the set of persons for which no explicit subpopulation is defined (ie no subpopulation attribute) -->
			<param name="subpopulation" value="null" />
			<!-- weight of a strategy: for each agent, a strategy will be selected with a probability proportional to its weight -->
			<param name="weight" value="0.9" />
		</parameterset>
		<parameterset type="strategysettings" >
			<!-- iteration after which strategy will be disabled.  most useful for ``innovative'' strategies (new routes, new times, ...). Normally, better use fractionOfIterationsToDisableInnovation -->
			<param name="disableAfterIteration" value="-1" />
			<!-- path to external executable (if applicable) -->
			<param name="executionPath" value="null" />
			<!-- strategyName of strategy.  Possible default names: SelectRandomBestScoreKeepLastSelectedChangeExpBetaSelectExpBetaSelectPathSizeLogit (selectors), ReRoute TimeAllocationMutator ChangeLegMode TimeAllocationMutator_ReRoute ChangeSingleLegMode ChangeSingleTripMode SubtourModeChoice ChangeTripMode TripSubtourModeChoice  (innovative strategies). -->
			<param name="strategyName" value="ReRoute" />
			<!-- subpopulation to which the strategy applies. "null" refers to the default population, that is, the set of persons for which no explicit subpopulation is defined (ie no subpopulation attribute) -->
			<param name="subpopulation" value="null" />
			<!-- weight of a strategy: for each agent, a strategy will be selected with a probability proportional to its weight -->
			<param name="weight" value="0.1" />
		</parameterset>
	</module>
<!-- ====================================================================== -->
	<module name="subtourModeChoice" >
		<!-- Defines the chain-based modes, seperated by commas -->
		<param name="chainBasedModes" value="car,bike" />
		<!-- Defines whether car availability must be considered or not. A agent has no car only if it has no license, or never access to a car -->
		<param name="considerCarAvailability" value="false" />
		<!-- Defines all the modes available, including chain-based modes, seperated by commas -->
		<param name="modes" value="car,pt,bike,walk" />
	</module>
<!-- ====================================================================== -->
	<module name="transit" >
		<!-- The Coordinates Reference System in which the coordinates are expressed in the input file. At import, the coordinates will be converted to the coordinate system defined in "global", and willbe converted back at export. If not specified, no conversion happens. -->
		<param name="inputScheduleCRS" value="null" />
		<!-- Optional input file containing additional attributes for transit lines, stored as ObjectAttributes. -->
		<param name="transitLinesAttributesFile" value="null" />
		<!-- Comma-separated list of transportation modes that are handled as transit. Defaults to 'pt'. -->
		<param name="transitModes" value="pt" />
		<!-- Input file containing the transit schedule to be simulated. -->
		<param name="transitScheduleFile" value="null" />
		<!-- Optional input file containing additional attributes for transit stop facilities, stored as ObjectAttributes. -->
		<param name="transitStopsAttributesFile" value="null" />
		<!-- Set this parameter to true if transit should be simulated, false if not. -->
		<param name="useTransit" value="false" />
		<!-- Input file containing the vehicles used by the departures in the transit schedule. -->
		<param name="vehiclesFile" value="null" />
	</module>
<!-- ====================================================================== -->
	<module name="transitRouter" >
		<!-- additional time the router allocates when a line switch happens. Can be interpreted as a 'safety' time that agents need to safely transfer from one line to another -->
		<param name="additionalTransferTime" value="0.0" />
		<!-- Factor with which direct walk generalized cost is multiplied before it is compared to the pt generalized cost.  Set to a very high value to reduce direct walk results. -->
		<param name="directWalkFactor" value="1.0" />
		<!-- step size to increase searchRadius if no stops are found -->
		<param name="extensionRadius" value="200.0" />
		<!-- maximum beeline distance between stops that agents could transfer to by walking -->
		<param name="maxBeelineWalkConnectionDistance" value="100.0" />
		<!-- the radius in which stop locations are searched, given a start or target coordinate -->
		<param name="searchRadius" value="1000.0" />
	</module>
<!-- ====================================================================== -->
	<module name="travelTimeCalculator" >
		<!-- Transport modes that will be respected by the travel time collector. 'car' is default, which includes also busses from the pt simulation module. Use this parameter in combination with 'filterModes' = true! -->
		<param name="analyzedModes" value="car" />
		<param name="calculateLinkToLinkTravelTimes" value="false" />
		<param name="calculateLinkTravelTimes" value="true" />
		<!-- If true, link travel times from legs performed on modes not included in the 'analyzedModes' parameter are ignored. -->
		<param name="filterModes" value="false" />
		<!-- The lenght (in sec) of the time period that is splited into time bins; an additional time bin is created to aggregate all travel times collected after maxTime -->
		<param name="maxTime" value="108000" />
		<!-- If true, link travel times are measured and calculated separately for each mode in analyzedModes. Other modes are ignored. If true, filterModes has no effect. -->
		<param name="separateModes" value="false" />
		<!-- How to deal with congested time bins that have no link entry events. `optimistic' assumes free speed (too optimistic); 'experimental_LastMile' is experimental and probably too pessimistic. -->
		<param name="travelTimeAggregator" value="optimistic" />
		<!-- The size of the time bin (in sec) into which the link travel times are aggregated for the router -->
		<param name="travelTimeBinSize" value="900" />
		<!-- possible values: TravelTimeCalculatorArray TravelTimeCalculatorHashMap  -->
		<param name="travelTimeCalculator" value="TravelTimeCalculatorArray" />
		<!-- How to deal with link entry times at different positions during the time bin. Currently supported: average, linearinterpolation -->
		<param name="travelTimeGetter" value="average" />
	</module>
<!-- ====================================================================== -->
	<module name="vehicles" >
		<param name="vehiclesFile" value="null" />
	</module>
<!-- ====================================================================== -->
	<module name="vspExperimental" >
		<!-- (do not use except of you have to) There was a problem with pt interaction scoring.  Some people solved it by overwriting the parameters of the pt interaction activity type.  Doing this now throws an Exception.  If you still insist on doing this, set the following to true. -->
		<param name="isAbleToOverwritePtInteractionParams" value="false" />
		<param name="isGeneratingBoardingDeniedEvent" value="false" />
		<!-- if an approximation of the opportunity cost of time is included into the radius calculation for location choice.`true' will be faster, but it is an approximation.  Default is `true'; `false' is available for backwards compatibility. -->
		<param name="isUsingOpportunityCostOfTimeForLocationChoice" value="true" />
		<param name="logitScaleParamForPlansRemoval" value="1.0" />
		<!-- Options: | ignore | info | warn | abort | .  When violating VSP defaults, this results in nothing, logfile infos, logfile warnings, or aborts.  Members of VSP should use `abort' or talk to kai. -->
		<param name="vspDefaultsCheckingLevel" value="ignore" />
		<!-- if true then writes output_events in output directory.  default is `false'. Will only work when lastIteration is multiple of events writing interval -->
		<param name="writingOutputEvents" value="true" />
	</module>
<!-- ====================================================================== -->

</config>

2018-05-29 07:41:50,999  INFO ControlerUtils:63 Complete config dump done.
2018-05-29 07:41:50,999  INFO ControlerUtils:64 Checking consistency of config...
2018-05-29 07:41:51,000  INFO VspConfigConsistencyCheckerImpl:58 NOT running vsp config consistency check because vsp defaults checking level is set to IGNORE
2018-05-29 07:41:51,000  INFO ControlerUtils:66 Checking consistency of config done.
2018-05-29 07:41:51,000 DEBUG NetworkRoutingProvider:75 requesting network routing module with routingMode=car;	mode=car
2018-05-29 07:41:51,000 DEBUG NetworkRoutingProvider:75 requesting network routing module with routingMode=car;	mode=car
2018-05-29 07:41:51,001  INFO Counter:61 [PersonPrepareForSim] handled person # 1
2018-05-29 07:41:51,002  INFO Counter:67 [PersonPrepareForSim] handled person # 1
2018-05-29 07:41:51,002  INFO Counter:61  vehicles # 1
2018-05-29 07:41:51,003  INFO AbstractController:121 ###################################################
2018-05-29 07:41:51,003  INFO AbstractController:122 ### ITERATION 0 BEGINS
2018-05-29 07:41:51,003  INFO ControlerListenerManagerImpl:145 calling notifyIterationStarts on org.matsim.analysis.LegHistogramListener
2018-05-29 07:41:51,003  INFO ControlerListenerManagerImpl:145 calling notifyIterationStarts on org.matsim.analysis.LinkStatsControlerListener
2018-05-29 07:41:51,003  INFO ControlerListenerManagerImpl:145 calling notifyIterationStarts on org.matsim.core.replanning.ReplanningContextImpl
2018-05-29 07:41:51,004  INFO ControlerListenerManagerImpl:145 calling notifyIterationStarts on org.matsim.core.scoring.ExperiencedPlansServiceImpl$1
2018-05-29 07:41:51,004  INFO ControlerListenerManagerImpl:145 calling notifyIterationStarts on org.matsim.core.scoring.ScoringFunctionsForPopulation$1
2018-05-29 07:41:51,004  INFO ControlerListenerManagerImpl:148 [it.0] all ControlerIterationStartsListeners called.
2018-05-29 07:41:51,004  INFO ControlerListenerManagerImpl:224 calling notifyBeforeMobsim on org.matsim.core.controler.corelisteners.EventsHandlingImpl
2018-05-29 07:41:51,004  INFO EventsManagerImpl:170 resetting Event-Handlers
2018-05-29 07:41:51,004  INFO EventsManagerImpl:177   org.matsim.core.trafficmonitoring.TravelTimeCalculator
2018-05-29 07:41:51,004  INFO EventsManagerImpl:177   org.matsim.core.scoring.EventsToLegs
2018-05-29 07:41:51,005  INFO EventsManagerImpl:177   org.matsim.analysis.VolumesAnalyzer
2018-05-29 07:41:51,005  INFO EventsManagerImpl:177   org.matsim.core.scoring.EventsToActivities
2018-05-29 07:41:51,005  INFO EventsManagerImpl:177   org.matsim.analysis.CalcLegTimes
2018-05-29 07:41:51,005  INFO EventsManagerImpl:177   org.matsim.analysis.LegHistogram
2018-05-29 07:41:51,005  INFO EventsManagerImpl:177   org.matsim.core.scoring.ScoringFunctionsForPopulation
2018-05-29 07:41:51,005  INFO ControlerListenerManagerImpl:224 calling notifyBeforeMobsim on org.matsim.core.controler.corelisteners.PlansDumpingImpl
2018-05-29 07:41:51,005  INFO ControlerListenerManagerImpl:229 calling notifyBeforeMobsim on org.matsim.core.population.VspPlansCleaner
2018-05-29 07:41:51,006  INFO ControlerListenerManagerImpl:232 [it.0] all ControlerBeforeMobsimListeners called.
2018-05-29 07:41:51,010  INFO MobsimListenerManager:49 calling addQueueSimulationListener
2018-05-29 07:41:51,011  INFO MobsimListenerManager:53   assigned class org.matsim.core.mobsim.framework.listeners.MobsimListener to interface org.matsim.core.controler.MobsimListenerTest$SingletonCountingMobsimListener
2018-05-29 07:41:51,011  INFO MobsimListenerManager:53   assigned class org.matsim.core.mobsim.framework.listeners.MobsimListener to interface org.matsim.core.mobsim.framework.listeners.MobsimListener
2018-05-29 07:41:51,011  INFO MobsimListenerManager:53   assigned class org.matsim.core.mobsim.framework.listeners.MobsimListener to interface org.matsim.core.mobsim.framework.listeners.MobsimInitializedListener
2018-05-29 07:41:51,012  INFO MobsimListenerManager:49 calling addQueueSimulationListener
2018-05-29 07:41:51,012  INFO MobsimListenerManager:53   assigned class org.matsim.core.mobsim.framework.listeners.MobsimListener to interface org.matsim.core.mobsim.framework.listeners.MobsimBeforeCleanupListener
2018-05-29 07:41:51,012  INFO MobsimListenerManager:53   assigned class org.matsim.core.mobsim.framework.listeners.MobsimListener to interface org.matsim.core.mobsim.framework.listeners.MobsimListener
2018-05-29 07:41:51,012  INFO MobsimListenerManager:53   assigned class org.matsim.core.mobsim.framework.listeners.MobsimListener to interface org.matsim.vis.snapshotwriters.SnapshotWriterManager
2018-05-29 07:41:51,013  INFO MobsimListenerManager:53   assigned class org.matsim.core.mobsim.framework.listeners.MobsimListener to interface org.matsim.core.mobsim.framework.listeners.MobsimInitializedListener
2018-05-29 07:41:51,013  INFO MobsimListenerManager:53   assigned class org.matsim.core.mobsim.framework.listeners.MobsimListener to interface org.matsim.core.mobsim.framework.listeners.MobsimAfterSimStepListener
2018-05-29 07:41:51,013  WARN QueueWithBuffer:377 Link 1 too small: enlarge storage capacity from: 1333.3333333333333 Vehicles to: 3599.712023038157 Vehicles.  This is not fatal, but modifies the traffic flow dynamics.
2018-05-29 07:41:51,014  WARN QueueWithBuffer:380 Additional warnings of this type are suppressed.
2018-05-29 07:41:51,014  INFO Injector:80 === printInjector start ===
2018-05-29 07:41:51,015  INFO Injector:84 org.matsim.core.mobsim.qsim.qnetsimengine.VehicularDepartureHandler 
2018-05-29 07:41:51,015  INFO Injector:85   --> provider: Key[type=org.matsim.core.mobsim.qsim.qnetsimengine.QNetsimEngineDepartureHandlerProvider, annotation=[none]][Scopes.SINGLETON]
2018-05-29 07:41:51,015  INFO Injector:86   --> source: org.matsim.core.mobsim.qsim.qnetsimengine.QNetsimEnginePlugin$1.configure(QNetsimEnginePlugin.java:25)
2018-05-29 07:41:51,015  INFO Injector:88   --> scope: eager singleton
2018-05-29 07:41:51,015  INFO Injector:92 
2018-05-29 07:41:51,015  INFO Injector:84 org.matsim.core.mobsim.qsim.agents.AgentFactory 
2018-05-29 07:41:51,018  INFO Injector:85   --> provider: FactoryProxy{key=Key[type=org.matsim.core.mobsim.qsim.agents.AgentFactory, annotation=[none]], provider=com.google.inject.internal.ConstructorBindingImpl$Factory@29ea78b1}[Scopes.SINGLETON]
2018-05-29 07:41:51,018  INFO Injector:86   --> source: org.matsim.core.mobsim.qsim.PopulationPlugin$1.configure(PopulationPlugin.java:30)
2018-05-29 07:41:51,018  INFO Injector:88   --> scope: eager singleton
2018-05-29 07:41:51,018  INFO Injector:92 
2018-05-29 07:41:51,019  INFO Injector:84 org.matsim.core.mobsim.qsim.interfaces.Netsim 
2018-05-29 07:41:51,019  INFO Injector:85   --> provider: FactoryProxy{key=Key[type=org.matsim.core.mobsim.qsim.interfaces.Netsim, annotation=[none]], provider=com.google.inject.internal.ConstructorBindingImpl$Factory@f72203[Scopes.SINGLETON]}
2018-05-29 07:41:51,019  INFO Injector:86   --> source: org.matsim.core.mobsim.qsim.QSimProvider$1.configure(QSimProvider.java:65)
2018-05-29 07:41:51,019  INFO Injector:88   --> scope: Scopes.NO_SCOPE
2018-05-29 07:41:51,019  INFO Injector:92 
2018-05-29 07:41:51,020  INFO Injector:84 org.matsim.core.mobsim.jdeqsim.MessageQueue 
2018-05-29 07:41:51,020  INFO Injector:85   --> provider: com.google.inject.internal.ConstructorBindingImpl$Factory@153d4abb[Scopes.SINGLETON]
2018-05-29 07:41:51,020  INFO Injector:86   --> source: org.matsim.core.mobsim.qsim.messagequeueengine.MessageQueuePlugin$1.configure(MessageQueuePlugin.java:24)
2018-05-29 07:41:51,020  INFO Injector:88   --> scope: eager singleton
2018-05-29 07:41:51,020  INFO Injector:92 
2018-05-29 07:41:51,020  INFO Injector:84 org.matsim.core.mobsim.qsim.jdeqsimengine.SteppableScheduler 
2018-05-29 07:41:51,021  INFO Injector:85   --> provider: com.google.inject.internal.ConstructorBindingImpl$Factory@42f9c19a[Scopes.SINGLETON]
2018-05-29 07:41:51,021  INFO Injector:86   --> source: org.matsim.core.mobsim.qsim.messagequeueengine.MessageQueuePlugin$1.configure(MessageQueuePlugin.java:25)
2018-05-29 07:41:51,021  INFO Injector:88   --> scope: eager singleton
2018-05-29 07:41:51,021  INFO Injector:92 
2018-05-29 07:41:51,021  INFO Injector:84 org.matsim.core.mobsim.qsim.messagequeueengine.MessageQueueEngine 
2018-05-29 07:41:51,021  INFO Injector:85   --> provider: com.google.inject.internal.ConstructorBindingImpl$Factory@6818d900[Scopes.SINGLETON]
2018-05-29 07:41:51,022  INFO Injector:86   --> source: org.matsim.core.mobsim.qsim.messagequeueengine.MessageQueuePlugin$1.configure(MessageQueuePlugin.java:26)
2018-05-29 07:41:51,022  INFO Injector:88   --> scope: eager singleton
2018-05-29 07:41:51,022  INFO Injector:92 
2018-05-29 07:41:51,022  INFO Injector:84 org.matsim.core.mobsim.qsim.ActivityEngine 
2018-05-29 07:41:51,022  INFO Injector:85   --> provider: com.google.inject.internal.ConstructorBindingImpl$Factory@6dcd5639[Scopes.SINGLETON]
2018-05-29 07:41:51,022  INFO Injector:86   --> source: org.matsim.core.mobsim.qsim.ActivityEnginePlugin$1.configure(ActivityEnginePlugin.java:23)
2018-05-29 07:41:51,023  INFO Injector:88   --> scope: eager singleton
2018-05-29 07:41:51,023  INFO Injector:92 
2018-05-29 07:41:51,023  INFO Injector:84 org.matsim.core.mobsim.qsim.qnetsimengine.QNetsimEngine 
2018-05-29 07:41:51,023  INFO Injector:85   --> provider: com.google.inject.internal.ConstructorBindingImpl$Factory@5bca7664[Scopes.SINGLETON]
2018-05-29 07:41:51,023  INFO Injector:86   --> source: org.matsim.core.mobsim.qsim.qnetsimengine.QNetsimEnginePlugin$1.configure(QNetsimEnginePlugin.java:24)
2018-05-29 07:41:51,023  INFO Injector:88   --> scope: eager singleton
2018-05-29 07:41:51,024  INFO Injector:92 
2018-05-29 07:41:51,024  INFO Injector:84 org.matsim.core.mobsim.qsim.DefaultTeleportationEngine 
2018-05-29 07:41:51,024  INFO Injector:85   --> provider: com.google.inject.internal.ConstructorBindingImpl$Factory@5da7cee2[Scopes.SINGLETON]
2018-05-29 07:41:51,024  INFO Injector:86   --> source: org.matsim.core.mobsim.qsim.TeleportationPlugin$1.configure(TeleportationPlugin.java:21)
2018-05-29 07:41:51,024  INFO Injector:88   --> scope: eager singleton
2018-05-29 07:41:51,025  INFO Injector:92 
2018-05-29 07:41:51,025  INFO Injector:84 org.matsim.core.mobsim.qsim.agents.PopulationAgentSource 
2018-05-29 07:41:51,025  INFO Injector:85   --> provider: com.google.inject.internal.ConstructorBindingImpl$Factory@1931d99[Scopes.SINGLETON]
2018-05-29 07:41:51,025  INFO Injector:86   --> source: org.matsim.core.mobsim.qsim.PopulationPlugin$1.configure(PopulationPlugin.java:26)
2018-05-29 07:41:51,025  INFO Injector:88   --> scope: eager singleton
2018-05-29 07:41:51,025  INFO Injector:92 
2018-05-29 07:41:51,037  INFO Injector:84 org.matsim.core.mobsim.qsim.QSim 
2018-05-29 07:41:51,038  INFO Injector:85   --> provider: com.google.inject.internal.ConstructorBindingImpl$Factory@f72203[Scopes.SINGLETON]
2018-05-29 07:41:51,039  INFO Injector:86   --> source: org.matsim.core.mobsim.qsim.QSimProvider$1.configure(QSimProvider.java:64)
2018-05-29 07:41:51,040  INFO Injector:88   --> scope: eager singleton
2018-05-29 07:41:51,040  INFO Injector:92 
2018-05-29 07:41:51,041  INFO Injector:95 === printInjector end ===
2018-05-29 07:41:51,041  INFO MobsimListenerManager:49 calling addQueueSimulationListener
2018-05-29 07:41:51,041  INFO MobsimListenerManager:53   assigned class org.matsim.core.mobsim.framework.listeners.MobsimListener to interface org.matsim.core.mobsim.qsim.messagequeueengine.MessageQueueEngine
2018-05-29 07:41:51,041  INFO MobsimListenerManager:53   assigned class org.matsim.core.mobsim.framework.listeners.MobsimListener to interface org.matsim.core.mobsim.framework.listeners.MobsimListener
2018-05-29 07:41:51,041  INFO MobsimListenerManager:53   assigned class org.matsim.core.mobsim.framework.listeners.MobsimListener to interface org.matsim.core.mobsim.framework.listeners.MobsimBeforeSimStepListener
2018-05-29 07:41:51,042  INFO QNetsimEngine:504 Assigned 15 nodes and 23 links to QSimEngineRunner #0
2018-05-29 07:41:51,042  INFO EventsManagerImpl:134  event # 1
2018-05-29 07:41:51,043  INFO EventsManagerImpl:134  event # 4
2018-05-29 07:41:51,043  INFO QNetsimEngine:347 SIMULATION (QNetsimEngine) AT 06:00:00 : #links=0 #nodes=1
2018-05-29 07:41:51,043  INFO QSim:506 SIMULATION (NEW QSim) AT 06:00:00 : #Veh=1 lost=0 simT=0.0s realT=0s; (s/r): 0.0
2018-05-29 07:41:51,043  INFO Gbl:54 used RAM: 15923984B = 15550kB = 15MB  free: 449119472B = 428MB  total: 465043456B = 443MB
2018-05-29 07:41:51,190  INFO EventsManagerImpl:134  event # 16
2018-05-29 07:41:51,404  INFO QNetsimEngine:347 SIMULATION (QNetsimEngine) AT 07:00:00 : #links=0 #nodes=0
2018-05-29 07:41:51,404  INFO QSim:506 SIMULATION (NEW QSim) AT 07:00:00 : #Veh=1 lost=0 simT=3600.0s realT=0s; (s/r): Infinity
2018-05-29 07:41:51,404  INFO Gbl:54 used RAM: 15923984B = 15550kB = 15MB  free: 449119472B = 428MB  total: 465043456B = 443MB
2018-05-29 07:41:51,767  INFO QNetsimEngine:347 SIMULATION (QNetsimEngine) AT 08:00:00 : #links=0 #nodes=0
2018-05-29 07:41:51,768  INFO QSim:506 SIMULATION (NEW QSim) AT 08:00:00 : #Veh=1 lost=0 simT=7200.0s realT=0s; (s/r): Infinity
2018-05-29 07:41:51,768  INFO Gbl:54 used RAM: 20443968B = 19964kB = 19MB  free: 444599488B = 424MB  total: 465043456B = 443MB
2018-05-29 07:41:52,130  INFO QNetsimEngine:347 SIMULATION (QNetsimEngine) AT 09:00:00 : #links=0 #nodes=0
2018-05-29 07:41:52,131  INFO QSim:506 SIMULATION (NEW QSim) AT 09:00:00 : #Veh=1 lost=0 simT=10800.0s realT=1s; (s/r): 10800.0
2018-05-29 07:41:52,131  INFO Gbl:54 used RAM: 21055664B = 20562kB = 20MB  free: 443987792B = 423MB  total: 465043456B = 443MB
2018-05-29 07:41:52,498  INFO QNetsimEngine:347 SIMULATION (QNetsimEngine) AT 10:00:00 : #links=1 #nodes=0
2018-05-29 07:41:52,499  INFO QSim:506 SIMULATION (NEW QSim) AT 10:00:00 : #Veh=1 lost=0 simT=14400.0s realT=1s; (s/r): 14400.0
2018-05-29 07:41:52,499  INFO Gbl:54 used RAM: 24964080B = 24378kB = 23MB  free: 440079376B = 419MB  total: 465043456B = 443MB
2018-05-29 07:41:52,702  INFO AbstractController$8:210 ### ITERATION 0 fires after mobsim event
2018-05-29 07:41:52,702  INFO ControlerListenerManagerImpl:248 calling notifyAfterMobsim on org.matsim.analysis.LegTimesControlerListener
2018-05-29 07:41:52,702  INFO Gbl:187 Thread performance: Thread=class org.matsim.core.events.SimStepParallelEventsManagerImpl$ProcessEventsRunnable0  cpu-time=0.329140572sec
2018-05-29 07:41:52,703  INFO LegTimesControlerListener:50 [0] average trip (probably: leg) duration is: 1080 seconds = 00:18:00
2018-05-29 07:41:52,703  INFO ControlerListenerManagerImpl:248 calling notifyAfterMobsim on org.matsim.core.scoring.EventsToActivities$1
2018-05-29 07:41:52,703  INFO ControlerListenerManagerImpl:251 [it.0] all ControlerAfterMobsimListeners called.
2018-05-29 07:41:52,703  INFO AbstractController$4:147 ### ITERATION 0 fires scoring event
2018-05-29 07:41:52,704  INFO ControlerListenerManagerImpl:183 calling notifyScoring on org.matsim.core.scoring.PlansScoringImpl
2018-05-29 07:41:52,704  INFO NewScoreAssignerImpl:36 it: 0 msaStart: null
2018-05-29 07:41:52,704  INFO ControlerListenerManagerImpl:194 [it.0] all ControlerScoringListeners called.
2018-05-29 07:41:52,704  INFO AbstractController$5:155 ### ITERATION 0 fires iteration end event
2018-05-29 07:41:52,704  INFO ControlerListenerManagerImpl:160 calling notifyIterationEnds on org.matsim.core.controler.corelisteners.EventsHandlingImpl
2018-05-29 07:41:52,704  INFO ControlerListenerManagerImpl:160 calling notifyIterationEnds on org.matsim.core.scoring.PlansScoringImpl
2018-05-29 07:41:52,705  INFO ControlerListenerManagerImpl:167 calling notifyIterationEnds on org.matsim.counts.CountsControlerListener
2018-05-29 07:41:52,705  INFO ControlerListenerManagerImpl:167 calling notifyIterationEnds on org.matsim.analysis.ModeStatsControlerListener
2018-05-29 07:41:52,705  INFO ModeStatsControlerListener:155 -- mode share of mode bike = 0.0
2018-05-29 07:41:52,705  INFO ModeStatsControlerListener:155 -- mode share of mode car = 1.0
2018-05-29 07:41:52,705  INFO ModeStatsControlerListener:155 -- mode share of mode other = 0.0
2018-05-29 07:41:52,706  INFO ModeStatsControlerListener:155 -- mode share of mode pt = 0.0
2018-05-29 07:41:52,706  INFO ModeStatsControlerListener:155 -- mode share of mode ride = 0.0
2018-05-29 07:41:52,706  INFO ModeStatsControlerListener:155 -- mode share of mode walk = 0.0
2018-05-29 07:41:52,706  INFO ControlerListenerManagerImpl:167 calling notifyIterationEnds on org.matsim.analysis.ScoreStatsControlerListener
2018-05-29 07:41:52,706  INFO ScoreStatsControlerListener:191 -- avg. score of the executed plan of each agent: 52.88175378702982
2018-05-29 07:41:52,706  INFO ScoreStatsControlerListener:192 -- avg. score of the worst plan of each agent: 52.88175378702982
2018-05-29 07:41:52,707  INFO ScoreStatsControlerListener:193 -- avg. of the avg. plan score per agent: 52.88175378702982
2018-05-29 07:41:52,707  INFO ScoreStatsControlerListener:194 -- avg. score of the best plan of each agent: 52.88175378702982
2018-05-29 07:41:52,707  INFO ControlerListenerManagerImpl:167 calling notifyIterationEnds on org.matsim.analysis.TravelDistanceStatsControlerListener
2018-05-29 07:41:52,707  INFO TravelDistanceStats:128 [TravelDistanceStats] using 2 thread(s).
2018-05-29 07:41:52,708  INFO TravelDistanceStats:141 [TravelDistanceStats] all threads finished.
2018-05-29 07:41:52,708  INFO TravelDistanceStats:161 -- average of the average leg distance per plan (executed plans only): 30000.0
2018-05-29 07:41:52,709  INFO TravelDistanceStats:162 (TravelDistanceStats takes an average over all legs where the simulation reports travelled distances. These are car legs, pt legs,
2018-05-29 07:41:52,709  INFO TravelDistanceStats:163 (and teleported legs whose route contains a distance.)
2018-05-29 07:41:52,709  INFO ControlerListenerManagerImpl:167 calling notifyIterationEnds on org.matsim.analysis.LegHistogramListener
2018-05-29 07:41:52,710  INFO LegHistogramListener:72 number of legs:	3	100%
2018-05-29 07:41:52,710  INFO LegHistogramListener:79 number of car legs:	3	100.0%
2018-05-29 07:41:52,710  INFO ControlerListenerManagerImpl:167 calling notifyIterationEnds on org.matsim.analysis.LinkStatsControlerListener
2018-05-29 07:41:52,711  INFO ControlerListenerManagerImpl:171 [it.0] all ControlerIterationEndsListeners called.
2018-05-29 07:41:52,711  INFO AbstractController:165 ### ITERATION 0 ENDS
2018-05-29 07:41:52,711  INFO AbstractController:166 ###################################################
2018-05-29 07:41:52,711  INFO AbstractController:121 ###################################################
2018-05-29 07:41:52,712  INFO AbstractController:122 ### ITERATION 1 BEGINS
2018-05-29 07:41:52,712  INFO ControlerListenerManagerImpl:145 calling notifyIterationStarts on org.matsim.analysis.LegHistogramListener
2018-05-29 07:41:52,712  INFO ControlerListenerManagerImpl:145 calling notifyIterationStarts on org.matsim.analysis.LinkStatsControlerListener
2018-05-29 07:41:52,712  INFO ControlerListenerManagerImpl:145 calling notifyIterationStarts on org.matsim.core.replanning.ReplanningContextImpl
2018-05-29 07:41:52,713  INFO ControlerListenerManagerImpl:145 calling notifyIterationStarts on org.matsim.core.scoring.ExperiencedPlansServiceImpl$1
2018-05-29 07:41:52,713  INFO ControlerListenerManagerImpl:145 calling notifyIterationStarts on org.matsim.core.scoring.ScoringFunctionsForPopulation$1
2018-05-29 07:41:52,713  INFO ControlerListenerManagerImpl:148 [it.1] all ControlerIterationStartsListeners called.
2018-05-29 07:41:52,713  INFO ControlerListenerManagerImpl:205 calling notifyReplanning on org.matsim.core.controler.corelisteners.PlansReplanningImpl
2018-05-29 07:41:52,714 DEBUG NetworkRoutingProvider:75 requesting network routing module with routingMode=car;	mode=car
2018-05-29 07:41:52,714 DEBUG NetworkRoutingProvider:75 requesting network routing module with routingMode=car;	mode=car
2018-05-29 07:41:52,714  INFO GenericPlanStrategyImpl:125 Plan-Strategy finished, 1 plans handled. Strategy: BestPlanSelector
2018-05-29 07:41:52,715  INFO AbstractMultithreadedModule:141 [PlanRouter] starting 2 threads, handling 0 plans
2018-05-29 07:41:52,715  INFO AbstractMultithreadedModule:156 [PlanRouter] all 2 threads finished.
2018-05-29 07:41:52,716  INFO GenericPlanStrategyImpl:125 Plan-Strategy finished, 0 plans handled. Strategy: RandomPlanSelector_ReRoute
2018-05-29 07:41:52,716  INFO ControlerListenerManagerImpl:213 [it.1] all ControlerReplanningListeners called.
2018-05-29 07:41:52,716  INFO ControlerListenerManagerImpl:224 calling notifyBeforeMobsim on org.matsim.core.controler.corelisteners.EventsHandlingImpl
2018-05-29 07:41:52,716  INFO EventsManagerImpl:170 resetting Event-Handlers
2018-05-29 07:41:52,716  INFO EventsManagerImpl:177   org.matsim.core.trafficmonitoring.TravelTimeCalculator
2018-05-29 07:41:52,716  INFO EventsManagerImpl:177   org.matsim.core.scoring.EventsToLegs
2018-05-29 07:41:52,717  INFO EventsManagerImpl:177   org.matsim.analysis.VolumesAnalyzer
2018-05-29 07:41:52,717  INFO EventsManagerImpl:177   org.matsim.core.scoring.EventsToActivities
2018-05-29 07:41:52,717  INFO EventsManagerImpl:177   org.matsim.analysis.CalcLegTimes
2018-05-29 07:41:52,717  INFO EventsManagerImpl:177   org.matsim.analysis.LegHistogram
2018-05-29 07:41:52,717  INFO EventsManagerImpl:177   org.matsim.core.scoring.ScoringFunctionsForPopulation
2018-05-29 07:41:52,717  INFO ControlerListenerManagerImpl:224 calling notifyBeforeMobsim on org.matsim.core.controler.corelisteners.PlansDumpingImpl
2018-05-29 07:41:52,717  INFO ControlerListenerManagerImpl:229 calling notifyBeforeMobsim on org.matsim.core.population.VspPlansCleaner
2018-05-29 07:41:52,717  INFO ControlerListenerManagerImpl:232 [it.1] all ControlerBeforeMobsimListeners called.
2018-05-29 07:41:52,723  INFO MobsimListenerManager:49 calling addQueueSimulationListener
2018-05-29 07:41:52,724  INFO MobsimListenerManager:53   assigned class org.matsim.core.mobsim.framework.listeners.MobsimListener to interface org.matsim.core.controler.MobsimListenerTest$SingletonCountingMobsimListener
2018-05-29 07:41:52,724  INFO MobsimListenerManager:53   assigned class org.matsim.core.mobsim.framework.listeners.MobsimListener to interface org.matsim.core.mobsim.framework.listeners.MobsimListener
2018-05-29 07:41:52,724  INFO MobsimListenerManager:53   assigned class org.matsim.core.mobsim.framework.listeners.MobsimListener to interface org.matsim.core.mobsim.framework.listeners.MobsimInitializedListener
2018-05-29 07:41:52,724  INFO MobsimListenerManager:49 calling addQueueSimulationListener
2018-05-29 07:41:52,725  INFO MobsimListenerManager:53   assigned class org.matsim.core.mobsim.framework.listeners.MobsimListener to interface org.matsim.core.mobsim.framework.listeners.MobsimBeforeCleanupListener
2018-05-29 07:41:52,725  INFO MobsimListenerManager:53   assigned class org.matsim.core.mobsim.framework.listeners.MobsimListener to interface org.matsim.core.mobsim.framework.listeners.MobsimListener
2018-05-29 07:41:52,725  INFO MobsimListenerManager:53   assigned class org.matsim.core.mobsim.framework.listeners.MobsimListener to interface org.matsim.vis.snapshotwriters.SnapshotWriterManager
2018-05-29 07:41:52,725  INFO MobsimListenerManager:53   assigned class org.matsim.core.mobsim.framework.listeners.MobsimListener to interface org.matsim.core.mobsim.framework.listeners.MobsimInitializedListener
2018-05-29 07:41:52,725  INFO MobsimListenerManager:53   assigned class org.matsim.core.mobsim.framework.listeners.MobsimListener to interface org.matsim.core.mobsim.framework.listeners.MobsimAfterSimStepListener
2018-05-29 07:41:52,726  INFO Injector:80 === printInjector start ===
2018-05-29 07:41:52,727  INFO Injector:84 org.matsim.core.mobsim.qsim.qnetsimengine.VehicularDepartureHandler 
2018-05-29 07:41:52,727  INFO Injector:85   --> provider: Key[type=org.matsim.core.mobsim.qsim.qnetsimengine.QNetsimEngineDepartureHandlerProvider, annotation=[none]][Scopes.SINGLETON]
2018-05-29 07:41:52,727  INFO Injector:86   --> source: org.matsim.core.mobsim.qsim.qnetsimengine.QNetsimEnginePlugin$1.configure(QNetsimEnginePlugin.java:25)
2018-05-29 07:41:52,727  INFO Injector:88   --> scope: eager singleton
2018-05-29 07:41:52,727  INFO Injector:92 
2018-05-29 07:41:52,727  INFO Injector:84 org.matsim.core.mobsim.qsim.agents.AgentFactory 
2018-05-29 07:41:52,728  INFO Injector:85   --> provider: FactoryProxy{key=Key[type=org.matsim.core.mobsim.qsim.agents.AgentFactory, annotation=[none]], provider=com.google.inject.internal.ConstructorBindingImpl$Factory@46d9aec8}[Scopes.SINGLETON]
2018-05-29 07:41:52,728  INFO Injector:86   --> source: org.matsim.core.mobsim.qsim.PopulationPlugin$1.configure(PopulationPlugin.java:30)
2018-05-29 07:41:52,728  INFO Injector:88   --> scope: eager singleton
2018-05-29 07:41:52,728  INFO Injector:92 
2018-05-29 07:41:52,728  INFO Injector:84 org.matsim.core.mobsim.qsim.interfaces.Netsim 
2018-05-29 07:41:52,728  INFO Injector:85   --> provider: FactoryProxy{key=Key[type=org.matsim.core.mobsim.qsim.interfaces.Netsim, annotation=[none]], provider=com.google.inject.internal.ConstructorBindingImpl$Factory@bc4d5e1[Scopes.SINGLETON]}
2018-05-29 07:41:52,729  INFO Injector:86   --> source: org.matsim.core.mobsim.qsim.QSimProvider$1.configure(QSimProvider.java:65)
2018-05-29 07:41:52,729  INFO Injector:88   --> scope: Scopes.NO_SCOPE
2018-05-29 07:41:52,729  INFO Injector:92 
2018-05-29 07:41:52,729  INFO Injector:84 org.matsim.core.mobsim.jdeqsim.MessageQueue 
2018-05-29 07:41:52,729  INFO Injector:85   --> provider: com.google.inject.internal.ConstructorBindingImpl$Factory@289fdb08[Scopes.SINGLETON]
2018-05-29 07:41:52,729  INFO Injector:86   --> source: org.matsim.core.mobsim.qsim.messagequeueengine.MessageQueuePlugin$1.configure(MessageQueuePlugin.java:24)
2018-05-29 07:41:52,730  INFO Injector:88   --> scope: eager singleton
2018-05-29 07:41:52,730  INFO Injector:92 
2018-05-29 07:41:52,730  INFO Injector:84 org.matsim.core.mobsim.qsim.jdeqsimengine.SteppableScheduler 
2018-05-29 07:41:52,730  INFO Injector:85   --> provider: com.google.inject.internal.ConstructorBindingImpl$Factory@11a00961[Scopes.SINGLETON]
2018-05-29 07:41:52,730  INFO Injector:86   --> source: org.matsim.core.mobsim.qsim.messagequeueengine.MessageQueuePlugin$1.configure(MessageQueuePlugin.java:25)
2018-05-29 07:41:52,731  INFO Injector:88   --> scope: eager singleton
2018-05-29 07:41:52,731  INFO Injector:92 
2018-05-29 07:41:52,731  INFO Injector:84 org.matsim.core.mobsim.qsim.messagequeueengine.MessageQueueEngine 
2018-05-29 07:41:52,731  INFO Injector:85   --> provider: com.google.inject.internal.ConstructorBindingImpl$Factory@17b64941[Scopes.SINGLETON]
2018-05-29 07:41:52,731  INFO Injector:86   --> source: org.matsim.core.mobsim.qsim.messagequeueengine.MessageQueuePlugin$1.configure(MessageQueuePlugin.java:26)
2018-05-29 07:41:52,731  INFO Injector:88   --> scope: eager singleton
2018-05-29 07:41:52,732  INFO Injector:92 
2018-05-29 07:41:52,732  INFO Injector:84 org.matsim.core.mobsim.qsim.ActivityEngine 
2018-05-29 07:41:52,732  INFO Injector:85   --> provider: com.google.inject.internal.ConstructorBindingImpl$Factory@5411dd90[Scopes.SINGLETON]
2018-05-29 07:41:52,732  INFO Injector:86   --> source: org.matsim.core.mobsim.qsim.ActivityEnginePlugin$1.configure(ActivityEnginePlugin.java:23)
2018-05-29 07:41:52,732  INFO Injector:88   --> scope: eager singleton
2018-05-29 07:41:52,732  INFO Injector:92 
2018-05-29 07:41:52,733  INFO Injector:84 org.matsim.core.mobsim.qsim.qnetsimengine.QNetsimEngine 
2018-05-29 07:41:52,733  INFO Injector:85   --> provider: com.google.inject.internal.ConstructorBindingImpl$Factory@2764c546[Scopes.SINGLETON]
2018-05-29 07:41:52,733  INFO Injector:86   --> source: org.matsim.core.mobsim.qsim.qnetsimengine.QNetsimEnginePlugin$1.configure(QNetsimEnginePlugin.java:24)
2018-05-29 07:41:52,733  INFO Injector:88   --> scope: eager singleton
2018-05-29 07:41:52,733  INFO Injector:92 
2018-05-29 07:41:52,733  INFO Injector:84 org.matsim.core.mobsim.qsim.DefaultTeleportationEngine 
2018-05-29 07:41:52,734  INFO Injector:85   --> provider: com.google.inject.internal.ConstructorBindingImpl$Factory@76c52298[Scopes.SINGLETON]
2018-05-29 07:41:52,734  INFO Injector:86   --> source: org.matsim.core.mobsim.qsim.TeleportationPlugin$1.configure(TeleportationPlugin.java:21)
2018-05-29 07:41:52,734  INFO Injector:88   --> scope: eager singleton
2018-05-29 07:41:52,734  INFO Injector:92 
2018-05-29 07:41:52,734  INFO Injector:84 org.matsim.core.mobsim.qsim.agents.PopulationAgentSource 
2018-05-29 07:41:52,735  INFO Injector:85   --> provider: com.google.inject.internal.ConstructorBindingImpl$Factory@1f6d27cc[Scopes.SINGLETON]
[...]
2018-05-29 07:41:53,989  INFO EventsManagerImpl:177   org.matsim.analysis.CalcLegTimes
2018-05-29 07:41:53,990  INFO EventsManagerImpl:177   org.matsim.analysis.LegHistogram
2018-05-29 07:41:53,990  INFO EventsManagerImpl:177   org.matsim.core.scoring.ScoringFunctionsForPopulation
2018-05-29 07:41:53,990  INFO ControlerListenerManagerImpl:224 calling notifyBeforeMobsim on org.matsim.core.controler.corelisteners.PlansDumpingImpl
2018-05-29 07:41:53,990  INFO PlansDumpingImpl:75 dumping plans...
2018-05-29 07:41:53,990  INFO PopulationWriter:139 Population written to: test/output/org/matsim/core/controler/NewControlerTest/testInjectionBeforeControler/ITERS/it.1/1.plans.xml.gz
2018-05-29 07:41:53,990  INFO Counter:67 [PopulationWriter] dumped person # 0
2018-05-29 07:41:53,991  INFO PlansDumpingImpl:92 finished plans dump.
2018-05-29 07:41:53,991  INFO ControlerListenerManagerImpl:229 calling notifyBeforeMobsim on org.matsim.core.population.VspPlansCleaner
2018-05-29 07:41:53,991  INFO ControlerListenerManagerImpl:232 [it.1] all ControlerBeforeMobsimListeners called.
2018-05-29 07:41:53,994  INFO MobsimListenerManager:49 calling addQueueSimulationListener
2018-05-29 07:41:53,995  INFO MobsimListenerManager:53   assigned class org.matsim.core.mobsim.framework.listeners.MobsimListener to interface org.matsim.core.mobsim.framework.listeners.MobsimBeforeCleanupListener
2018-05-29 07:41:53,995  INFO MobsimListenerManager:53   assigned class org.matsim.core.mobsim.framework.listeners.MobsimListener to interface org.matsim.core.mobsim.framework.listeners.MobsimListener
2018-05-29 07:41:53,995  INFO MobsimListenerManager:53   assigned class org.matsim.core.mobsim.framework.listeners.MobsimListener to interface org.matsim.vis.snapshotwriters.SnapshotWriterManager
2018-05-29 07:41:53,995  INFO MobsimListenerManager:53   assigned class org.matsim.core.mobsim.framework.listeners.MobsimListener to interface org.matsim.core.mobsim.framework.listeners.MobsimInitializedListener
2018-05-29 07:41:53,995  INFO MobsimListenerManager:53   assigned class org.matsim.core.mobsim.framework.listeners.MobsimListener to interface org.matsim.core.mobsim.framework.listeners.MobsimAfterSimStepListener
2018-05-29 07:41:53,996  INFO Injector:80 === printInjector start ===
2018-05-29 07:41:53,996  INFO Injector:84 org.matsim.core.mobsim.qsim.qnetsimengine.VehicularDepartureHandler 
2018-05-29 07:41:53,996  INFO Injector:85   --> provider: Key[type=org.matsim.core.mobsim.qsim.qnetsimengine.QNetsimEngineDepartureHandlerProvider, annotation=[none]][Scopes.SINGLETON]
2018-05-29 07:41:53,996  INFO Injector:86   --> source: org.matsim.core.mobsim.qsim.qnetsimengine.QNetsimEnginePlugin$1.configure(QNetsimEnginePlugin.java:25)
2018-05-29 07:41:53,996  INFO Injector:88   --> scope: eager singleton
2018-05-29 07:41:53,997  INFO Injector:92 
2018-05-29 07:41:53,997  INFO Injector:84 org.matsim.core.mobsim.qsim.agents.AgentFactory 
2018-05-29 07:41:53,997  INFO Injector:85   --> provider: FactoryProxy{key=Key[type=org.matsim.core.mobsim.qsim.agents.AgentFactory, annotation=[none]], provider=com.google.inject.internal.ConstructorBindingImpl$Factory@1bbddada}[Scopes.SINGLETON]
2018-05-29 07:41:53,997  INFO Injector:86   --> source: org.matsim.core.mobsim.qsim.PopulationPlugin$1.configure(PopulationPlugin.java:30)
2018-05-29 07:41:53,997  INFO Injector:88   --> scope: eager singleton
2018-05-29 07:41:53,997  INFO Injector:92 
2018-05-29 07:41:53,997  INFO Injector:84 org.matsim.core.mobsim.qsim.interfaces.Netsim 
2018-05-29 07:41:53,997  INFO Injector:85   --> provider: FactoryProxy{key=Key[type=org.matsim.core.mobsim.qsim.interfaces.Netsim, annotation=[none]], provider=com.google.inject.internal.ConstructorBindingImpl$Factory@7069f076[Scopes.SINGLETON]}
2018-05-29 07:41:53,998  INFO Injector:86   --> source: org.matsim.core.mobsim.qsim.QSimProvider$1.configure(QSimProvider.java:65)
2018-05-29 07:41:53,998  INFO Injector:88   --> scope: Scopes.NO_SCOPE
2018-05-29 07:41:53,998  INFO Injector:92 
2018-05-29 07:41:53,998  INFO Injector:84 org.matsim.core.mobsim.jdeqsim.MessageQueue 
2018-05-29 07:41:53,998  INFO Injector:85   --> provider: com.google.inject.internal.ConstructorBindingImpl$Factory@432af457[Scopes.SINGLETON]
2018-05-29 07:41:53,998  INFO Injector:86   --> source: org.matsim.core.mobsim.qsim.messagequeueengine.MessageQueuePlugin$1.configure(MessageQueuePlugin.java:24)
2018-05-29 07:41:53,998  INFO Injector:88   --> scope: eager singleton
2018-05-29 07:41:53,999  INFO Injector:92 
2018-05-29 07:41:53,999  INFO Injector:84 org.matsim.core.mobsim.qsim.jdeqsimengine.SteppableScheduler 
2018-05-29 07:41:53,999  INFO Injector:85   --> provider: com.google.inject.internal.ConstructorBindingImpl$Factory@100ad67e[Scopes.SINGLETON]
2018-05-29 07:41:53,999  INFO Injector:86   --> source: org.matsim.core.mobsim.qsim.messagequeueengine.MessageQueuePlugin$1.configure(MessageQueuePlugin.java:25)
2018-05-29 07:41:53,999  INFO Injector:88   --> scope: eager singleton
2018-05-29 07:41:53,999  INFO Injector:92 
2018-05-29 07:41:53,999  INFO Injector:84 org.matsim.core.mobsim.qsim.messagequeueengine.MessageQueueEngine 
2018-05-29 07:41:53,999  INFO Injector:85   --> provider: com.google.inject.internal.ConstructorBindingImpl$Factory@6367a688[Scopes.SINGLETON]
2018-05-29 07:41:54,000  INFO Injector:86   --> source: org.matsim.core.mobsim.qsim.messagequeueengine.MessageQueuePlugin$1.configure(MessageQueuePlugin.java:26)
2018-05-29 07:41:54,000  INFO Injector:88   --> scope: eager singleton
2018-05-29 07:41:54,000  INFO Injector:92 
2018-05-29 07:41:54,000  INFO Injector:84 org.matsim.core.mobsim.qsim.ActivityEngine 
2018-05-29 07:41:54,000  INFO Injector:85   --> provider: com.google.inject.internal.ConstructorBindingImpl$Factory@7d0100ea[Scopes.SINGLETON]
2018-05-29 07:41:54,000  INFO Injector:86   --> source: org.matsim.core.mobsim.qsim.ActivityEnginePlugin$1.configure(ActivityEnginePlugin.java:23)
2018-05-29 07:41:54,001  INFO Injector:88   --> scope: eager singleton
2018-05-29 07:41:54,001  INFO Injector:92 
2018-05-29 07:41:54,001  INFO Injector:84 org.matsim.core.mobsim.qsim.qnetsimengine.QNetsimEngine 
2018-05-29 07:41:54,001  INFO Injector:85   --> provider: com.google.inject.internal.ConstructorBindingImpl$Factory@7573b9ee[Scopes.SINGLETON]
2018-05-29 07:41:54,001  INFO Injector:86   --> source: org.matsim.core.mobsim.qsim.qnetsimengine.QNetsimEnginePlugin$1.configure(QNetsimEnginePlugin.java:24)
2018-05-29 07:41:54,001  INFO Injector:88   --> scope: eager singleton
2018-05-29 07:41:54,001  INFO Injector:92 
2018-05-29 07:41:54,001  INFO Injector:84 org.matsim.core.mobsim.qsim.DefaultTeleportationEngine 
2018-05-29 07:41:54,002  INFO Injector:85   --> provider: com.google.inject.internal.ConstructorBindingImpl$Factory@bb25753[Scopes.SINGLETON]
2018-05-29 07:41:54,002  INFO Injector:86   --> source: org.matsim.core.mobsim.qsim.TeleportationPlugin$1.configure(TeleportationPlugin.java:21)
2018-05-29 07:41:54,002  INFO Injector:88   --> scope: eager singleton
2018-05-29 07:41:54,002  INFO Injector:92 
2018-05-29 07:41:54,002  INFO Injector:84 org.matsim.core.mobsim.qsim.agents.PopulationAgentSource 
2018-05-29 07:41:54,002  INFO Injector:85   --> provider: com.google.inject.internal.ConstructorBindingImpl$Factory@2282400e[Scopes.SINGLETON]
2018-05-29 07:41:54,002  INFO Injector:86   --> source: org.matsim.core.mobsim.qsim.PopulationPlugin$1.configure(PopulationPlugin.java:26)
2018-05-29 07:41:54,003  INFO Injector:88   --> scope: eager singleton
2018-05-29 07:41:54,003  INFO Injector:92 
2018-05-29 07:41:54,003  INFO Injector:84 org.matsim.core.mobsim.qsim.QSim 
2018-05-29 07:41:54,003  INFO Injector:85   --> provider: com.google.inject.internal.ConstructorBindingImpl$Factory@7069f076[Scopes.SINGLETON]
2018-05-29 07:41:54,003  INFO Injector:86   --> source: org.matsim.core.mobsim.qsim.QSimProvider$1.configure(QSimProvider.java:64)
2018-05-29 07:41:54,003  INFO Injector:88   --> scope: eager singleton
2018-05-29 07:41:54,003  INFO Injector:92 
2018-05-29 07:41:54,003  INFO Injector:95 === printInjector end ===
2018-05-29 07:41:54,004  INFO MobsimListenerManager:49 calling addQueueSimulationListener
2018-05-29 07:41:54,004  INFO MobsimListenerManager:53   assigned class org.matsim.core.mobsim.framework.listeners.MobsimListener to interface org.matsim.core.mobsim.qsim.messagequeueengine.MessageQueueEngine
2018-05-29 07:41:54,004  INFO MobsimListenerManager:53   assigned class org.matsim.core.mobsim.framework.listeners.MobsimListener to interface org.matsim.core.mobsim.framework.listeners.MobsimListener
2018-05-29 07:41:54,004  INFO MobsimListenerManager:53   assigned class org.matsim.core.mobsim.framework.listeners.MobsimListener to interface org.matsim.core.mobsim.framework.listeners.MobsimBeforeSimStepListener
2018-05-29 07:41:54,004  INFO QNetsimEngine:504 Assigned 0 nodes and 0 links to QSimEngineRunner #0
2018-05-29 07:41:54,005  INFO QNetsimEngine:347 SIMULATION (QNetsimEngine) AT 9223372036854775807:00:00 : #links=0 #nodes=0
2018-05-29 07:41:54,005  INFO QSim:506 SIMULATION (NEW QSim) AT 9223372036854775807:00:00 : #Veh=0 lost=0 simT=NaNs realT=0s; (s/r): NaN
2018-05-29 07:41:54,005  INFO Gbl:54 used RAM: 166417928B = 162517kB = 158MB  free: 314878456B = 300MB  total: 481296384B = 459MB
2018-05-29 07:41:54,006  INFO AbstractController$8:210 ### ITERATION 1 fires after mobsim event
2018-05-29 07:41:54,006  INFO Gbl:187 Thread performance: Thread=class org.matsim.core.events.SimStepParallelEventsManagerImpl$ProcessEventsRunnable0  cpu-time=3.77045E-4sec
2018-05-29 07:41:54,006  INFO ControlerListenerManagerImpl:248 calling notifyAfterMobsim on org.matsim.analysis.LegTimesControlerListener
2018-05-29 07:41:54,007  INFO LegTimesControlerListener:50 [1] average trip (probably: leg) duration is: 0 seconds = 00:00:00
2018-05-29 07:41:54,007  INFO ControlerListenerManagerImpl:248 calling notifyAfterMobsim on org.matsim.core.scoring.EventsToActivities$1
2018-05-29 07:41:54,007  INFO ControlerListenerManagerImpl:251 [it.1] all ControlerAfterMobsimListeners called.
2018-05-29 07:41:54,007  INFO AbstractController$4:147 ### ITERATION 1 fires scoring event
2018-05-29 07:41:54,007  INFO ControlerListenerManagerImpl:183 calling notifyScoring on org.matsim.core.scoring.PlansScoringImpl
2018-05-29 07:41:54,007  INFO NewScoreAssignerImpl:36 it: 1 msaStart: null
2018-05-29 07:41:54,007  INFO ControlerListenerManagerImpl:194 [it.1] all ControlerScoringListeners called.
2018-05-29 07:41:54,008  INFO AbstractController$5:155 ### ITERATION 1 fires iteration end event
2018-05-29 07:41:54,008  INFO ControlerListenerManagerImpl:160 calling notifyIterationEnds on org.matsim.core.controler.corelisteners.EventsHandlingImpl
2018-05-29 07:41:54,008  INFO ControlerListenerManagerImpl:160 calling notifyIterationEnds on org.matsim.core.scoring.PlansScoringImpl
2018-05-29 07:41:54,008  INFO ControlerListenerManagerImpl:167 calling notifyIterationEnds on org.matsim.counts.CountsControlerListener
2018-05-29 07:41:54,008  INFO ControlerListenerManagerImpl:167 calling notifyIterationEnds on org.matsim.analysis.ModeStatsControlerListener
2018-05-29 07:41:54,008  INFO ModeStatsControlerListener:155 -- mode share of mode bike = 0.0
2018-05-29 07:41:54,008  INFO ModeStatsControlerListener:155 -- mode share of mode car = 0.0
2018-05-29 07:41:54,008  INFO ModeStatsControlerListener:155 -- mode share of mode other = 0.0
2018-05-29 07:41:54,009  INFO ModeStatsControlerListener:155 -- mode share of mode pt = 0.0
2018-05-29 07:41:54,009  INFO ModeStatsControlerListener:155 -- mode share of mode ride = 0.0
2018-05-29 07:41:54,009  INFO ModeStatsControlerListener:155 -- mode share of mode walk = 0.0
2018-05-29 07:41:54,095  INFO ControlerListenerManagerImpl:167 calling notifyIterationEnds on org.matsim.analysis.ScoreStatsControlerListener
2018-05-29 07:41:54,095  INFO ScoreStatsControlerListener:191 -- avg. score of the executed plan of each agent: NaN
2018-05-29 07:41:54,095  INFO ScoreStatsControlerListener:192 -- avg. score of the worst plan of each agent: NaN
2018-05-29 07:41:54,095  INFO ScoreStatsControlerListener:193 -- avg. of the avg. plan score per agent: NaN
2018-05-29 07:41:54,095  INFO ScoreStatsControlerListener:194 -- avg. score of the best plan of each agent: NaN
2018-05-29 07:41:54,172  INFO ControlerListenerManagerImpl:167 calling notifyIterationEnds on org.matsim.analysis.TravelDistanceStatsControlerListener
2018-05-29 07:41:54,172  INFO TravelDistanceStats:128 [TravelDistanceStats] using 2 thread(s).
2018-05-29 07:41:54,173  INFO TravelDistanceStats:141 [TravelDistanceStats] all threads finished.
2018-05-29 07:41:54,173  INFO TravelDistanceStats:161 -- average of the average leg distance per plan (executed plans only): NaN
2018-05-29 07:41:54,173  INFO TravelDistanceStats:162 (TravelDistanceStats takes an average over all legs where the simulation reports travelled distances. These are car legs, pt legs,
2018-05-29 07:41:54,173  INFO TravelDistanceStats:163 (and teleported legs whose route contains a distance.)
2018-05-29 07:41:54,256  INFO ControlerListenerManagerImpl:167 calling notifyIterationEnds on org.matsim.analysis.LegHistogramListener
2018-05-29 07:41:54,257  INFO LegHistogramListener:72 number of legs:	0	100%
2018-05-29 07:41:54,399  INFO ControlerListenerManagerImpl:167 calling notifyIterationEnds on org.matsim.analysis.LinkStatsControlerListener
2018-05-29 07:41:54,400  INFO ControlerListenerManagerImpl:171 [it.1] all ControlerIterationEndsListeners called.
2018-05-29 07:41:54,507  INFO AbstractController:165 ### ITERATION 1 ENDS
2018-05-29 07:41:54,507  INFO AbstractController:166 ###################################################
2018-05-29 07:41:54,507  INFO MatsimRuntimeModifications:58 S H U T D O W N   ---   start shutdown.
2018-05-29 07:41:54,507  INFO ControlerListenerManagerImpl:121 calling notifyShutdown on org.matsim.core.controler.corelisteners.EventsHandlingImpl
2018-05-29 07:41:54,507  INFO ControlerListenerManagerImpl:121 calling notifyShutdown on org.matsim.core.controler.corelisteners.DumpDataAtEndImpl
2018-05-29 07:41:54,508  INFO PopulationWriter:139 Population written to: test/output/org/matsim/core/controler/NewControlerTest/testInjectionBeforeControler/output_plans.xml.gz
2018-05-29 07:41:54,508  INFO Counter:67 [PopulationWriter] dumped person # 0
2018-05-29 07:41:54,508  INFO NetworkWriter:68 Writing network to file: test/output/org/matsim/core/controler/NewControlerTest/testInjectionBeforeControler/output_network.xml.gz...
2018-05-29 07:41:54,509  INFO NetworkWriter:71 done.
2018-05-29 07:41:54,509  INFO Config:561 setting context to [file:/root/workspace/matsim-org/matsim/385025376/matsim/]
2018-05-29 07:41:54,515  INFO VehicleWriterV1:55 Vehicles written to: test/output/org/matsim/core/controler/NewControlerTest/testInjectionBeforeControler/output_vehicles.xml.gz
2018-05-29 07:41:54,515  INFO Counter:67 [HouseholdsWriter] dumped household # 0
2018-05-29 07:41:54,515  INFO LanesWriter:63 Using LaneDefinitionWriter20...
2018-05-29 07:41:54,515  INFO LanesWriter:72 writing to file: test/output/org/matsim/core/controler/NewControlerTest/testInjectionBeforeControler/output_lanes.xml.gz
2018-05-29 07:41:54,541 ERROR DumpDataAtEndImpl:150 writing output events did not work; probably parameters were such that no events were generated in the final iteration
org.matsim.core.utils.io.UncheckedIOException: java.nio.file.NoSuchFileException: test/output/org/matsim/core/controler/NewControlerTest/testInjectionBeforeControler/ITERS/it.1/1.events.xml.gz
	at org.matsim.core.controler.corelisteners.DumpDataAtEndImpl.dumpOutputEvents(DumpDataAtEndImpl.java:147)
	at org.matsim.core.controler.corelisteners.DumpDataAtEndImpl.notifyShutdown(DumpDataAtEndImpl.java:134)
	at org.matsim.core.controler.ControlerListenerManagerImpl.fireControlerShutdownEvent(ControlerListenerManagerImpl.java:122)
	at org.matsim.core.controler.AbstractController$1.shutdown(AbstractController.java:85)
	at org.matsim.core.controler.MatsimRuntimeModifications.run(MatsimRuntimeModifications.java:66)
	at org.matsim.core.controler.MatsimRuntimeModifications.run(MatsimRuntimeModifications.java:31)
	at org.matsim.core.controler.AbstractController.run(AbstractController.java:88)
	at org.matsim.core.controler.NewControler.run(NewControler.java:75)
	at org.matsim.core.controler.NewControlerTest.testInjectionBeforeControler(NewControlerTest.java:41)
	at sun.reflect.NativeMethodAccessorImpl.invoke0(Native Method)
	at sun.reflect.NativeMethodAccessorImpl.invoke(NativeMethodAccessorImpl.java:62)
	at sun.reflect.DelegatingMethodAccessorImpl.invoke(DelegatingMethodAccessorImpl.java:43)
	at java.lang.reflect.Method.invoke(Method.java:498)
	at org.junit.runners.model.FrameworkMethod$1.runReflectiveCall(FrameworkMethod.java:50)
	at org.junit.internal.runners.model.ReflectiveCallable.run(ReflectiveCallable.java:12)
	at org.junit.runners.model.FrameworkMethod.invokeExplosively(FrameworkMethod.java:47)
	at org.junit.internal.runners.statements.InvokeMethod.evaluate(InvokeMethod.java:17)
	at org.junit.rules.TestWatchman$1.evaluate(TestWatchman.java:53)
	at org.junit.runners.ParentRunner.runLeaf(ParentRunner.java:325)
	at org.junit.runners.BlockJUnit4ClassRunner.runChild(BlockJUnit4ClassRunner.java:78)
	at org.junit.runners.BlockJUnit4ClassRunner.runChild(BlockJUnit4ClassRunner.java:57)
	at org.junit.runners.ParentRunner$3.run(ParentRunner.java:290)
	at org.junit.runners.ParentRunner$1.schedule(ParentRunner.java:71)
	at org.junit.runners.ParentRunner.runChildren(ParentRunner.java:288)
	at org.junit.runners.ParentRunner.access$000(ParentRunner.java:58)
	at org.junit.runners.ParentRunner$2.evaluate(ParentRunner.java:268)
	at org.junit.runners.ParentRunner.run(ParentRunner.java:363)
	at org.apache.maven.surefire.junit4.JUnit4Provider.execute(JUnit4Provider.java:344)
	at org.apache.maven.surefire.junit4.JUnit4Provider.executeWithRerun(JUnit4Provider.java:269)
	at org.apache.maven.surefire.junit4.JUnit4Provider.executeTestSet(JUnit4Provider.java:240)
	at org.apache.maven.surefire.junit4.JUnit4Provider.invoke(JUnit4Provider.java:184)
	at org.apache.maven.surefire.booter.ForkedBooter.invokeProviderInSameClassLoader(ForkedBooter.java:286)
	at org.apache.maven.surefire.booter.ForkedBooter.runSuitesInProcess(ForkedBooter.java:240)
	at org.apache.maven.surefire.booter.ForkedBooter.main(ForkedBooter.java:121)
Caused by: java.nio.file.NoSuchFileException: test/output/org/matsim/core/controler/NewControlerTest/testInjectionBeforeControler/ITERS/it.1/1.events.xml.gz
	at sun.nio.fs.UnixException.translateToIOException(UnixException.java:86)
	at sun.nio.fs.UnixException.rethrowAsIOException(UnixException.java:102)
	at sun.nio.fs.UnixException.rethrowAsIOException(UnixException.java:107)
	at sun.nio.fs.UnixCopyFile.copy(UnixCopyFile.java:526)
	at sun.nio.fs.UnixFileSystemProvider.copy(UnixFileSystemProvider.java:253)
	at java.nio.file.Files.copy(Files.java:1274)
	at org.matsim.core.controler.corelisteners.DumpDataAtEndImpl.dumpOutputEvents(DumpDataAtEndImpl.java:145)
	... 33 more
2018-05-29 07:41:54,542  INFO ControlerListenerManagerImpl:126 calling notifyShutdown on org.matsim.analysis.ModeStatsControlerListener
2018-05-29 07:41:54,542  INFO ControlerListenerManagerImpl:126 calling notifyShutdown on org.matsim.analysis.ScoreStatsControlerListener
2018-05-29 07:41:54,542  INFO ControlerListenerManagerImpl:126 calling notifyShutdown on org.matsim.analysis.TravelDistanceStatsControlerListener
2018-05-29 07:41:54,542  INFO ControlerListenerManagerImpl:129 all ControlerShutdownListeners called.
2018-05-29 07:41:54,542  INFO MatsimRuntimeModifications:81 S H U T D O W N   ---   shutdown completed.
2018-05-29 07:41:54,542  INFO OutputDirectoryLogging:146 closing the logfile, i.e. messages sent to the logger after this message are not written to the logfile.
