2018-05-31 18:05:38,107  INFO Gbl:59 JVM: 1.8.0_121; Oracle Corporation; mixed mode; 64-bit
2018-05-31 18:05:38,108  INFO Gbl:63 OS: Linux; 3.10.0-862.2.3.el7.x86_64; amd64
2018-05-31 18:05:38,108  INFO Gbl:66 CPU cores: 32
2018-05-31 18:05:38,108  INFO Gbl:67 max. Memory: 622.5MB (652738560B)
2018-05-31 18:05:38,108  INFO Gbl:105 MATSim-Build: rcad979362d1bf0596a9b120927352c8b338556d3 (2018-05-31 18:05:03)
2018-05-31 18:05:38,109  INFO ControlerListenerManagerImpl:107 calling notifyStartup on org.matsim.counts.CountsControlerListener
2018-05-31 18:05:38,109  INFO ControlerListenerManagerImpl:107 calling notifyStartup on org.matsim.analysis.ModeStatsControlerListener
2018-05-31 18:05:38,109 DEBUG NetworkRoutingProvider:75 requesting network routing module with routingMode=car;	mode=car
2018-05-31 18:05:38,109  INFO NetworkImpl:167  node # 1
2018-05-31 18:05:38,109  INFO NetworkImpl:167  node # 4
2018-05-31 18:05:38,109  INFO NetworkImpl:163  link # 1
2018-05-31 18:05:38,110  INFO NetworkImpl:163  link # 4
2018-05-31 18:05:38,110  INFO NetworkImpl:163  link # 16
2018-05-31 18:05:38,110  INFO ControlerListenerManagerImpl:107 calling notifyStartup on org.matsim.analysis.ScoreStatsControlerListener
2018-05-31 18:05:38,110  INFO ControlerListenerManagerImpl:110 all ControlerStartupListeners called.
2018-05-31 18:05:38,110  INFO ControlerUtils:58 config dump before iterations start
2018-05-31 18:05:38,110  INFO Config:561 setting context to [file:/root/workspace/matsim-org/matsim/386233578/matsim/]
2018-05-31 18:05:38,118  INFO ControlerUtils:62 

<?xml version="1.0" encoding="UTF-8"?>
<!DOCTYPE config SYSTEM "http://www.matsim.org/files/dtd/config_v2.dtd">
<config>
<!-- ====================================================================== -->
	<module name="JDEQSim" >
		<param name="carSize" value="7.5" />
		<param name="endTime" value="undefined" />
		<param name="flowCapacityFactor" value="1.0" />
		<param name="gapTravelSpeed" value="15.0" />
		<param name="minimumInFlowCapacity" value="1800.0" />
		<param name="squeezeTime" value="1800.0" />
		<param name="storageCapacityFactor" value="1.0" />
	</module>
<!-- ====================================================================== -->
	<module name="TimeAllocationMutator" >
		<!-- Default:true; Defines whether time mutation changes an activity's duration. -->
		<param name="mutationAffectsDuration" value="true" />
		<!-- Default:1800.0; Defines how many seconds a time mutation can maximally shift a time. -->
		<param name="mutationRange" value="1800.0" />
		<!-- false; Use individual settings for each subpopulation. If enabled but no settings are found, regular settings are uses as fallback. -->
		<param name="useIndividualSettingsForSubpopulations" value="false" />
	</module>
<!-- ====================================================================== -->
<!-- ====================================================================== -->
	<module name="changeMode" >
		<param name="ignoreCarAvailability" value="true" />
		<param name="modes" value="car,pt" />
	</module>
<!-- ====================================================================== -->
	<module name="controler" >
		<!-- Sets whether graphs showing some analyses should automatically be generated during the simulation. The generation of graphs usually takes a small amount of time that does not have any weight in big simulations, but add a significant overhead in smaller runs or in test cases where the graphical output is not even requested. -->
		<param name="createGraphs" value="true" />
		<!-- true if at the end of a run, plans, network, config etc should be dumped to a file -->
		<param name="dumpDataAtEnd" value="true" />
		<!-- Default=false. If enabled, the router takes travel times needed for turning moves into account. Cannot be used if the (Fast)AStarLandmarks routing or TravelTimeCalculator.separateModes is enabled. -->
		<param name="enableLinkToLinkRouting" value="false" />
		<!-- Default=xml; Specifies the file format for writing events. Currently supported: xml.
		Multiple values can be specified separated by commas (','). -->
		<param name="eventsFileFormat" value="xml" />
		<!-- Default=0;  -->
		<param name="firstIteration" value="0" />
		<!-- Default=1000;  -->
		<param name="lastIteration" value="10" />
		<!-- Defines which mobility simulation will be used. Currently supported: qsim JDEQSim 
		Depending on the chosen mobsim, you'll have to add additional config modules to configure the corresponding mobsim.
		For 'qsim', add a module 'qsim' to the config. -->
		<param name="mobsim" value="qsim" />
		<param name="outputDirectory" value="test/output/org/matsim/core/mobsim/qsim/QSimEventsIntegrationTest/controlerHandlesExceptionCorrectly/" />
		<!-- Possible values: failIfDirectoryExists, overwriteExistingFiles, deleteDirectoryIfExists -->
		<param name="overwriteFiles" value="failIfDirectoryExists" />
		<!-- The type of routing (least cost path) algorithm used, may have the values: Dijkstra, FastDijkstra, AStarLandmarks or FastAStarLandmarks -->
		<param name="routingAlgorithmType" value="Dijkstra" />
		<!-- An identifier for the current run which is used as prefix for output files and mentioned in output xml files etc. -->
		<param name="runId" value="null" />
		<!-- Comma-separated list of visualizer output file formats. `transims', `googleearth', and `otfvis'. -->
		<param name="snapshotFormat" value="transims" />
		<!-- iterationNumber % writeEventsInterval == 0 defines in which iterations events are written to a file. `0' disables events writing completely. -->
		<param name="writeEventsInterval" value="4" />
		<!-- iterationNumber % writePlansInterval == 0 defines (hopefully) in which iterations plans are written to a file. `0' disables plans writing completely.  Some plans in early iterations are always written -->
		<param name="writePlansInterval" value="10" />
		<!-- iterationNumber % writeSnapshotsInterval == 0 defines in which iterations snapshots are written to a file. `0' disables snapshots writing completely -->
		<param name="writeSnapshotsInterval" value="1" />
	</module>
<!-- ====================================================================== -->
	<module name="counts" >
		<!-- Transport modes that will be respected for the counts comparison. 'car' is default, which includes also bussed from the pt simulation module. Use this parameter in combination with 'filterModes' = true! -->
		<param name="analyzedModes" value="car" />
		<!-- Specifies over how many iterations the link volumes should be averaged that are used for the counts comparison. Use 1 or 0 to only use the link volumes of a single iteration. This values cannot be larger than the value specified for writeCountsInterval -->
		<param name="averageCountsOverIterations" value="5" />
		<!-- factor by which to re-scale the simulated values.  necessary when simulation runs with something different from 100%.  needs to be adapted manually -->
		<param name="countsScaleFactor" value="1.0" />
		<!-- distance to distanceFilterCenterNode to include counting stations. The unit of distance is the Euclidean distance implied by the coordinate system -->
		<param name="distanceFilter" value="null" />
		<!-- node id for center node of distance filter -->
		<param name="distanceFilterCenterNode" value="null" />
		<!-- If true, link counts from legs performed on modes not included in the 'analyzedModes' parameter are ignored. -->
		<param name="filterModes" value="false" />
		<!-- The Coordinates Reference System in which the coordinates are expressed in the input file. At import, the coordinates will be converted to the coordinate system defined in "global", and willbe converted back at export. If not specified, no conversion happens. -->
		<param name="inputCRS" value="null" />
		<!-- input file name to counts package -->
		<param name="inputCountsFile" value="null" />
		<!-- possible values: `html', `kml', `txt', `all' -->
		<param name="outputformat" value="txt" />
		<!-- Specifies how often the counts comparison should be calculated and written. -->
		<param name="writeCountsInterval" value="10" />
	</module>
<!-- ====================================================================== -->
	<module name="facilities" >
		<!-- If set to 'true', empty activity option will be created. -->
		<param name="addEmptyActivityOption" value="false" />
		<!-- Default is 'true'. In the case that a facility has no link assigned, the ActivityFacility can be assigned to the closest link. If there should be only one ActivityFacility per link and if no link-assignment should be done, set to 'false'.This will create a new ActivityFacility at the coordinate and the facility will not be assigned to a link. -->
		<param name="assigningLinksToFacilitiesIfMissing" value="true" />
		<!-- If set to 'true', opening time will be assigned to activity facilities from ActivityParams. Default is false. This will NOT override option 'addEmptyActivityOption'. -->
		<param name="assigningOpeningTime" value="false" />
		<!-- This defines how facilities should be created. Possible values: none fromFile setInScenario onePerActivityLocationInPlansFile  -->
		<param name="facilitiesSource" value="fromFile" />
		<!-- A prefix to be used in activityFacility id. -->
		<param name="idPrefix" value="" />
		<!-- The Coordinates Reference System in which the coordinates are expressed in the input file. At import, the coordinates will be converted to the coordinate system defined in "global", and willbe converted back at export. If not specified, no conversion happens. -->
		<param name="inputCRS" value="null" />
		<param name="inputFacilitiesFile" value="facilities.xml" />
		<param name="inputFacilityAttributesFile" value="null" />
		<!-- Sets whether all activities on a link should be collected within one ActivityFacility. Default is 'true'. If set to 'false', for each coordinate found in the population's activities a separate ActivityFacility will be created. -->
		<param name="oneFacilityPerLink" value="true" />
		<!-- If set to 'true' (which is the default), the link and coordinate attributes are replaced by null reference in the activities, as this information is now available via the facility. -->
		<param name="removingLinksAndCoordinates" value="true" />
	</module>
<!-- ====================================================================== -->
	<module name="global" >
		<param name="coordinateSystem" value="Atlantis" />
		<param name="insistingOnDeprecatedConfigVersion" value="true" />
		<!-- "global" number of threads.  This number is used, e.g., for replanning, but NOT in the mobsim.  This can typically be set to as many cores as you have available, or possibly even slightly more. -->
		<param name="numberOfThreads" value="2" />
		<param name="randomSeed" value="4711" />
	</module>
<!-- ====================================================================== -->
	<module name="households" >
		<param name="inputFile" value="null" />
		<param name="inputHouseholdAttributesFile" value="null" />
	</module>
<!-- ====================================================================== -->
	<module name="linkStats" >
		<!-- Specifies over how many iterations the link volumes should be averaged that are used for the link statistics. Use 1 or 0 to only use the link volumes of a single iteration. This values cannot be larger than the value specified for writeLinkStatsInterval -->
		<param name="averageLinkStatsOverIterations" value="5" />
		<!-- Specifies how often the link stats should be calculated and written. Use 0 to disable the generation of link stats. -->
		<param name="writeLinkStatsInterval" value="10" />
	</module>
<!-- ====================================================================== -->
	<module name="network" >
		<!-- The Coordinates Reference System in which the coordinates are expressed in the input file. At import, the coordinates will be converted to the coordinate system defined in "global", and willbe converted back at export. If not specified, no conversion happens. -->
		<param name="inputCRS" value="null" />
		<param name="inputChangeEventsFile" value="null" />
		<param name="inputNetworkFile" value="network.xml" />
		<param name="laneDefinitionsFile" value="null" />
		<param name="timeVariantNetwork" value="false" />
	</module>
<!-- ====================================================================== -->
	<module name="parallelEventHandling" >
		<!-- Estimated number of events during mobsim run. An optional optimization hint for the framework. -->
		<param name="estimatedNumberOfEvents" value="null" />
		<!-- Number of threads for parallel events handler. _null_ means the framework decides by itself. 0 is currently not possible. -->
		<param name="numberOfThreads" value="null" />
		<!-- If enabled, each event handler is assigned to its own thread. Note that enabling this feature disabled the numberOfThreads option! This feature is still experimental! -->
		<param name="oneThreadPerHandler" value="false" />
		<!-- If enabled, it is ensured that all events that are created during a time step of the mobility simulation are processed before the next time step is simulated. E.g. neccessary when within-day replanning is used. -->
		<param name="synchronizeOnSimSteps" value="true" />
	</module>
<!-- ====================================================================== -->
	<module name="planCalcScore" >
		<!-- logit model scale parameter. default: 1.  Has name and default value for historical reasons (see Bryan Raney's phd thesis). -->
		<param name="BrainExpBeta" value="2.0" />
		<param name="PathSizeLogitBeta" value="1.0" />
		<!-- fraction of iterations at which MSA score averaging is started. The matsim theory department suggests to use this together with switching off choice set innovation (where a similar switch exists), but it has not been tested yet. -->
		<param name="fractionOfIterationsToStartScoreMSA" value="null" />
		<!-- new_score = (1-learningRate)*old_score + learningRate * score_from_mobsim.  learning rates close to zero emulate score averaging, but slow down initial convergence -->
		<param name="learningRate" value="1.0" />
		<!-- There used to be a plateau between duration=0 and duration=zeroUtilityDuration. This caused durations to evolve to zero once they were below zeroUtilityDuration, causing problems.  Only use this switch if you need to be backwards compatible with some old results.  (changed nov'13) -->
		<param name="usingOldScoringBelowZeroUtilityDuration" value="false" />
		<!-- write a plans file in each iteration directory which contains what each agent actually did, and the score it received. -->
		<param name="writeExperiencedPlans" value="false" />
		<parameterset type="scoringParameters" >
			<param name="earlyDeparture" value="-0.0" />
			<param name="lateArrival" value="-18.0" />
			<param name="marginalUtilityOfMoney" value="1.0" />
			<param name="performing" value="6.0" />
			<param name="subpopulation" value="null" />
			<param name="utilityOfLineSwitch" value="-1.0" />
			<param name="waiting" value="-0.0" />
			<param name="waitingPt" value="-6.0" />
			<parameterset type="activityParams" >
				<param name="activityType" value="dummy" />
				<param name="closingTime" value="undefined" />
				<param name="earliestEndTime" value="undefined" />
				<param name="latestStartTime" value="undefined" />
				<param name="minimalDuration" value="undefined" />
				<param name="openingTime" value="undefined" />
				<param name="priority" value="1.0" />
				<param name="scoringThisActivityAtAll" value="false" />
				<!-- typical duration of activity.  needs to be defined and non-zero.  in sec. -->
				<param name="typicalDuration" value="02:00:00" />
				<!-- method to compute score at typical duration.  Options: | uniform | relative | Use uniform for backwards compatibility (all activities same score; higher proba to drop long acts). -->
				<param name="typicalDurationScoreComputation" value="relative" />
			</parameterset>
			<parameterset type="activityParams" >
				<param name="activityType" value="car interaction" />
				<param name="closingTime" value="undefined" />
				<param name="earliestEndTime" value="undefined" />
				<param name="latestStartTime" value="undefined" />
				<param name="minimalDuration" value="undefined" />
				<param name="openingTime" value="undefined" />
				<param name="priority" value="1.0" />
				<param name="scoringThisActivityAtAll" value="false" />
				<!-- typical duration of activity.  needs to be defined and non-zero.  in sec. -->
				<param name="typicalDuration" value="undefined" />
				<!-- method to compute score at typical duration.  Options: | uniform | relative | Use uniform for backwards compatibility (all activities same score; higher proba to drop long acts). -->
				<param name="typicalDurationScoreComputation" value="relative" />
			</parameterset>
			<parameterset type="activityParams" >
				<param name="activityType" value="pt interaction" />
				<param name="closingTime" value="undefined" />
				<param name="earliestEndTime" value="undefined" />
				<param name="latestStartTime" value="undefined" />
				<param name="minimalDuration" value="undefined" />
				<param name="openingTime" value="undefined" />
				<param name="priority" value="1.0" />
				<param name="scoringThisActivityAtAll" value="false" />
				<!-- typical duration of activity.  needs to be defined and non-zero.  in sec. -->
				<param name="typicalDuration" value="undefined" />
				<!-- method to compute score at typical duration.  Options: | uniform | relative | Use uniform for backwards compatibility (all activities same score; higher proba to drop long acts). -->
				<param name="typicalDurationScoreComputation" value="relative" />
			</parameterset>
			<parameterset type="activityParams" >
				<param name="activityType" value="bike interaction" />
				<param name="closingTime" value="undefined" />
				<param name="earliestEndTime" value="undefined" />
				<param name="latestStartTime" value="undefined" />
				<param name="minimalDuration" value="undefined" />
				<param name="openingTime" value="undefined" />
				<param name="priority" value="1.0" />
				<param name="scoringThisActivityAtAll" value="false" />
				<!-- typical duration of activity.  needs to be defined and non-zero.  in sec. -->
				<param name="typicalDuration" value="undefined" />
				<!-- method to compute score at typical duration.  Options: | uniform | relative | Use uniform for backwards compatibility (all activities same score; higher proba to drop long acts). -->
				<param name="typicalDurationScoreComputation" value="relative" />
			</parameterset>
			<parameterset type="activityParams" >
				<param name="activityType" value="other interaction" />
				<param name="closingTime" value="undefined" />
				<param name="earliestEndTime" value="undefined" />
				<param name="latestStartTime" value="undefined" />
				<param name="minimalDuration" value="undefined" />
				<param name="openingTime" value="undefined" />
				<param name="priority" value="1.0" />
				<param name="scoringThisActivityAtAll" value="false" />
				<!-- typical duration of activity.  needs to be defined and non-zero.  in sec. -->
				<param name="typicalDuration" value="undefined" />
				<!-- method to compute score at typical duration.  Options: | uniform | relative | Use uniform for backwards compatibility (all activities same score; higher proba to drop long acts). -->
				<param name="typicalDurationScoreComputation" value="relative" />
			</parameterset>
			<parameterset type="activityParams" >
				<param name="activityType" value="walk interaction" />
				<param name="closingTime" value="undefined" />
				<param name="earliestEndTime" value="undefined" />
				<param name="latestStartTime" value="undefined" />
				<param name="minimalDuration" value="undefined" />
				<param name="openingTime" value="undefined" />
				<param name="priority" value="1.0" />
				<param name="scoringThisActivityAtAll" value="false" />
				<!-- typical duration of activity.  needs to be defined and non-zero.  in sec. -->
				<param name="typicalDuration" value="undefined" />
				<!-- method to compute score at typical duration.  Options: | uniform | relative | Use uniform for backwards compatibility (all activities same score; higher proba to drop long acts). -->
				<param name="typicalDurationScoreComputation" value="relative" />
			</parameterset>
			<parameterset type="activityParams" >
				<param name="activityType" value="h" />
				<param name="closingTime" value="undefined" />
				<param name="earliestEndTime" value="undefined" />
				<param name="latestStartTime" value="undefined" />
				<param name="minimalDuration" value="08:00:00" />
				<param name="openingTime" value="undefined" />
				<param name="priority" value="1.0" />
				<param name="scoringThisActivityAtAll" value="true" />
				<!-- typical duration of activity.  needs to be defined and non-zero.  in sec. -->
				<param name="typicalDuration" value="12:00:00" />
				<!-- method to compute score at typical duration.  Options: | uniform | relative | Use uniform for backwards compatibility (all activities same score; higher proba to drop long acts). -->
				<param name="typicalDurationScoreComputation" value="relative" />
			</parameterset>
			<parameterset type="activityParams" >
				<param name="activityType" value="w" />
				<param name="closingTime" value="18:00:00" />
				<param name="earliestEndTime" value="undefined" />
				<param name="latestStartTime" value="09:00:00" />
				<param name="minimalDuration" value="06:00:00" />
				<param name="openingTime" value="07:00:00" />
				<param name="priority" value="1.0" />
				<param name="scoringThisActivityAtAll" value="true" />
				<!-- typical duration of activity.  needs to be defined and non-zero.  in sec. -->
				<param name="typicalDuration" value="08:00:00" />
				<!-- method to compute score at typical duration.  Options: | uniform | relative | Use uniform for backwards compatibility (all activities same score; higher proba to drop long acts). -->
				<param name="typicalDurationScoreComputation" value="relative" />
			</parameterset>
			<parameterset type="modeParams" >
				<!-- [utils] alternative-specific constant.  no guarantee that this is used anywhere. default=0 to be backwards compatible for the time being -->
				<param name="constant" value="0.0" />
				<!-- [utils/m] utility of walking per m, normally negative.  this is on top of the time (dis)utility. -->
				<param name="marginalUtilityOfDistance_util_m" value="0.0" />
				<!-- [utils/hr] additional marginal utility of traveling.  normally negative.  this comes on top of the opportunity cost of time -->
				<param name="marginalUtilityOfTraveling_util_hr" value="-6.0" />
				<param name="mode" value="car" />
				<!-- [unit_of_money/m] conversion of distance into money. Normally negative. -->
				<param name="monetaryDistanceRate" value="0.0" />
			</parameterset>
			<parameterset type="modeParams" >
				<!-- [utils] alternative-specific constant.  no guarantee that this is used anywhere. default=0 to be backwards compatible for the time being -->
				<param name="constant" value="0.0" />
				<!-- [utils/m] utility of walking per m, normally negative.  this is on top of the time (dis)utility. -->
				<param name="marginalUtilityOfDistance_util_m" value="0.0" />
				<!-- [utils/hr] additional marginal utility of traveling.  normally negative.  this comes on top of the opportunity cost of time -->
				<param name="marginalUtilityOfTraveling_util_hr" value="-6.0" />
				<param name="mode" value="pt" />
				<!-- [unit_of_money/m] conversion of distance into money. Normally negative. -->
				<param name="monetaryDistanceRate" value="0.0" />
			</parameterset>
			<parameterset type="modeParams" >
				<!-- [utils] alternative-specific constant.  no guarantee that this is used anywhere. default=0 to be backwards compatible for the time being -->
				<param name="constant" value="0.0" />
				<!-- [utils/m] utility of walking per m, normally negative.  this is on top of the time (dis)utility. -->
				<param name="marginalUtilityOfDistance_util_m" value="0.0" />
				<!-- [utils/hr] additional marginal utility of traveling.  normally negative.  this comes on top of the opportunity cost of time -->
				<param name="marginalUtilityOfTraveling_util_hr" value="-6.0" />
				<param name="mode" value="walk" />
				<!-- [unit_of_money/m] conversion of distance into money. Normally negative. -->
				<param name="monetaryDistanceRate" value="0.0" />
			</parameterset>
			<parameterset type="modeParams" >
				<!-- [utils] alternative-specific constant.  no guarantee that this is used anywhere. default=0 to be backwards compatible for the time being -->
				<param name="constant" value="0.0" />
				<!-- [utils/m] utility of walking per m, normally negative.  this is on top of the time (dis)utility. -->
				<param name="marginalUtilityOfDistance_util_m" value="0.0" />
				<!-- [utils/hr] additional marginal utility of traveling.  normally negative.  this comes on top of the opportunity cost of time -->
				<param name="marginalUtilityOfTraveling_util_hr" value="-6.0" />
				<param name="mode" value="bike" />
				<!-- [unit_of_money/m] conversion of distance into money. Normally negative. -->
				<param name="monetaryDistanceRate" value="0.0" />
			</parameterset>
			<parameterset type="modeParams" >
				<!-- [utils] alternative-specific constant.  no guarantee that this is used anywhere. default=0 to be backwards compatible for the time being -->
				<param name="constant" value="0.0" />
				<!-- [utils/m] utility of walking per m, normally negative.  this is on top of the time (dis)utility. -->
				<param name="marginalUtilityOfDistance_util_m" value="0.0" />
				<!-- [utils/hr] additional marginal utility of traveling.  normally negative.  this comes on top of the opportunity cost of time -->
				<param name="marginalUtilityOfTraveling_util_hr" value="-6.0" />
				<param name="mode" value="ride" />
				<!-- [unit_of_money/m] conversion of distance into money. Normally negative. -->
				<param name="monetaryDistanceRate" value="0.0" />
			</parameterset>
			<parameterset type="modeParams" >
				<!-- [utils] alternative-specific constant.  no guarantee that this is used anywhere. default=0 to be backwards compatible for the time being -->
				<param name="constant" value="0.0" />
				<!-- [utils/m] utility of walking per m, normally negative.  this is on top of the time (dis)utility. -->
				<param name="marginalUtilityOfDistance_util_m" value="0.0" />
				<!-- [utils/hr] additional marginal utility of traveling.  normally negative.  this comes on top of the opportunity cost of time -->
				<param name="marginalUtilityOfTraveling_util_hr" value="-6.0" />
				<param name="mode" value="other" />
				<!-- [unit_of_money/m] conversion of distance into money. Normally negative. -->
				<param name="monetaryDistanceRate" value="0.0" />
			</parameterset>
		</parameterset>
	</module>
<!-- ====================================================================== -->
	<module name="plans" >
		<!-- String: minOfDurationAndEndTime tryEndTimeThenDuration endTimeOnly. Anything besides minOfDurationAndEndTime will internally use a different (simpler) version of the TimeAllocationMutator. -->
		<param name="activityDurationInterpretation" value="tryEndTimeThenDuration" />
		<!-- The Coordinates Reference System in which the coordinates are expressed in the input file. At import, the coordinates will be converted to the coordinate system defined in "global", and willbe converted back at export. If not specified, no conversion happens. -->
		<param name="inputCRS" value="null" />
		<!-- Path to a file containing person attributes (required file format: ObjectAttributes). -->
		<param name="inputPersonAttributesFile" value="null" />
		<param name="inputPlansFile" value="plans1.xml" />
		<!-- Defines how routes are stored in memory. Currently supported: LinkNetworkRoute, CompressedNetworkRoute. -->
		<param name="networkRouteType" value="LinkNetworkRoute" />
		<!-- (not tested) will remove plan attributes that are presumably not used, such as activityStartTime. default=false -->
		<param name="removingUnnecessaryPlanAttributes" value="false" />
		<!-- Name of the (Object)Attribute defining the subpopulation to which pertains a Person (as freight, through traffic, etc.). The attribute must be of String type.  Change away from default only in desperate situations. -->
		<param name="subpopulationAttributeName" value="subpopulation" />
	</module>
<!-- ====================================================================== -->
	<module name="planscalcroute" >
		<!-- All the modes for which the router is supposed to generate network routes (like car) -->
		<param name="networkModes" value="car" />
		<parameterset type="teleportedModeParameters" >
			<param name="beelineDistanceFactor" value="1.3" />
			<param name="mode" value="bike" />
			<!-- Free-speed factor for a teleported mode. Travel time = teleportedModeFreespeedFactor * <freespeed car travel time>. Insert a line like this for every such mode. Please do not set teleportedModeFreespeedFactor as well as teleportedModeSpeed for the same mode, but if you do, +teleportedModeFreespeedFactor wins over teleportedModeSpeed. -->
			<param name="teleportedModeFreespeedFactor" value="null" />
			<!-- Speed for a teleported mode. Travel time = (<beeline distance> * beelineDistanceFactor) / teleportedModeSpeed. Insert a line like this for every such mode. -->
			<param name="teleportedModeSpeed" value="4.166666666666667" />
		</parameterset>
		<parameterset type="teleportedModeParameters" >
			<param name="beelineDistanceFactor" value="1.3" />
			<param name="mode" value="walk" />
			<!-- Free-speed factor for a teleported mode. Travel time = teleportedModeFreespeedFactor * <freespeed car travel time>. Insert a line like this for every such mode. Please do not set teleportedModeFreespeedFactor as well as teleportedModeSpeed for the same mode, but if you do, +teleportedModeFreespeedFactor wins over teleportedModeSpeed. -->
			<param name="teleportedModeFreespeedFactor" value="null" />
			<!-- Speed for a teleported mode. Travel time = (<beeline distance> * beelineDistanceFactor) / teleportedModeSpeed. Insert a line like this for every such mode. -->
			<param name="teleportedModeSpeed" value="0.8333333333333333" />
		</parameterset>
		<parameterset type="teleportedModeParameters" >
			<param name="beelineDistanceFactor" value="1.3" />
			<param name="mode" value="access_walk" />
			<!-- Free-speed factor for a teleported mode. Travel time = teleportedModeFreespeedFactor * <freespeed car travel time>. Insert a line like this for every such mode. Please do not set teleportedModeFreespeedFactor as well as teleportedModeSpeed for the same mode, but if you do, +teleportedModeFreespeedFactor wins over teleportedModeSpeed. -->
			<param name="teleportedModeFreespeedFactor" value="null" />
			<!-- Speed for a teleported mode. Travel time = (<beeline distance> * beelineDistanceFactor) / teleportedModeSpeed. Insert a line like this for every such mode. -->
			<param name="teleportedModeSpeed" value="0.8333333333333333" />
		</parameterset>
		<parameterset type="teleportedModeParameters" >
			<param name="beelineDistanceFactor" value="1.3" />
			<param name="mode" value="egress_walk" />
			<!-- Free-speed factor for a teleported mode. Travel time = teleportedModeFreespeedFactor * <freespeed car travel time>. Insert a line like this for every such mode. Please do not set teleportedModeFreespeedFactor as well as teleportedModeSpeed for the same mode, but if you do, +teleportedModeFreespeedFactor wins over teleportedModeSpeed. -->
			<param name="teleportedModeFreespeedFactor" value="null" />
			<!-- Speed for a teleported mode. Travel time = (<beeline distance> * beelineDistanceFactor) / teleportedModeSpeed. Insert a line like this for every such mode. -->
			<param name="teleportedModeSpeed" value="0.8333333333333333" />
		</parameterset>
		<parameterset type="teleportedModeParameters" >
			<param name="beelineDistanceFactor" value="1.3" />
			<param name="mode" value="undefined" />
			<!-- Free-speed factor for a teleported mode. Travel time = teleportedModeFreespeedFactor * <freespeed car travel time>. Insert a line like this for every such mode. Please do not set teleportedModeFreespeedFactor as well as teleportedModeSpeed for the same mode, but if you do, +teleportedModeFreespeedFactor wins over teleportedModeSpeed. -->
			<param name="teleportedModeFreespeedFactor" value="null" />
			<!-- Speed for a teleported mode. Travel time = (<beeline distance> * beelineDistanceFactor) / teleportedModeSpeed. Insert a line like this for every such mode. -->
			<param name="teleportedModeSpeed" value="13.88888888888889" />
		</parameterset>
		<parameterset type="teleportedModeParameters" >
			<param name="beelineDistanceFactor" value="1.3" />
			<param name="mode" value="ride" />
			<!-- Free-speed factor for a teleported mode. Travel time = teleportedModeFreespeedFactor * <freespeed car travel time>. Insert a line like this for every such mode. Please do not set teleportedModeFreespeedFactor as well as teleportedModeSpeed for the same mode, but if you do, +teleportedModeFreespeedFactor wins over teleportedModeSpeed. -->
			<param name="teleportedModeFreespeedFactor" value="1.0" />
			<!-- Speed for a teleported mode. Travel time = (<beeline distance> * beelineDistanceFactor) / teleportedModeSpeed. Insert a line like this for every such mode. -->
			<param name="teleportedModeSpeed" value="null" />
		</parameterset>
		<parameterset type="teleportedModeParameters" >
			<param name="beelineDistanceFactor" value="1.3" />
			<param name="mode" value="pt" />
			<!-- Free-speed factor for a teleported mode. Travel time = teleportedModeFreespeedFactor * <freespeed car travel time>. Insert a line like this for every such mode. Please do not set teleportedModeFreespeedFactor as well as teleportedModeSpeed for the same mode, but if you do, +teleportedModeFreespeedFactor wins over teleportedModeSpeed. -->
			<param name="teleportedModeFreespeedFactor" value="2.0" />
			<!-- Speed for a teleported mode. Travel time = (<beeline distance> * beelineDistanceFactor) / teleportedModeSpeed. Insert a line like this for every such mode. -->
			<param name="teleportedModeSpeed" value="null" />
		</parameterset>
	</module>
<!-- ====================================================================== -->
	<module name="ptCounts" >
		<!-- factor by which to re-scale the simulated values.  necessary when simulation runs with something different from 100%.  needs to be adapted manually -->
		<param name="countsScaleFactor" value="1.0" />
		<!-- distance to distanceFilterCenterNode to include counting stations. The unit of distance is the Euclidean distance implied by the coordinate system -->
		<param name="distanceFilter" value="null" />
		<!-- node id for center node of distance filter -->
		<param name="distanceFilterCenterNode" value="null" />
		<!-- input file containing the alighting (getting off) counts for pt -->
		<param name="inputAlightCountsFile" value="null" />
		<!-- input file containing the boarding (getting on) counts for pt -->
		<param name="inputBoardCountsFile" value="null" />
		<!-- input file containing the occupancy counts for pt -->
		<param name="inputOccupancyCountsFile" value="null" />
		<!-- possible values: `html', `kml', `txt', `all' -->
		<param name="outputformat" value="null" />
		<!-- every how many iterations (starting with 0) counts comparisons are generated -->
		<param name="ptCountsInterval" value="10" />
	</module>
<!-- ====================================================================== -->
	<module name="qsim" >
		<!-- If set to true, creates a vehicle for each person corresponding to every network mode. However, this will be overridden if vehicle source is fromVehiclesData. -->
		<param name="creatingVehiclesForAllNetworkModes" value="true" />
		<param name="endTime" value="00:00:00" />
		<param name="flowCapacityFactor" value="1.0" />
		<!-- decides if waiting vehicles enter the network after or before the already driving vehicles were moved. Default: false -->
		<param name="insertingWaitingVehiclesBeforeDrivingVehicles" value="false" />
		<!-- If link dynamics is set as SeepageQ, set to false if all seep modes should perform seepage. Default is true (better option). -->
		<param name="isRestrictingSeepage" value="true" />
		<!-- If link dynamics is set as SeepageQ, set to true if seep mode do not consumes any space on the link. Default is false. -->
		<param name="isSeepModeStorageFree" value="false" />
		<!-- default: FIFO; options: FIFO PassingQ SeepageQ -->
		<param name="linkDynamics" value="FIFO" />
		<!-- The (initial) width of the links of the network. Use positive floating point values. This is used only for visualisation. -->
		<param name="linkWidth" value="30.0" />
		<!-- [comma-separated list] Defines which modes are congested modes. Technically, these are the modes that the departure handler of the netsimengine handles.  Effective cell size, effective lane width, flow capacity factor, and storage capacity factor need to be set with diligence.  Need to be vehicular modes to make sense. -->
		<param name="mainMode" value="car" />
		<!-- Shortens a link in the visualization, i.e. its start and end point are moved into towards the center. Does not affect traffic flow.  -->
		<param name="nodeOffset" value="0.0" />
		<!-- Number of threads used for the QSim.  Note that this setting is independent from the "global" threads setting.  In contrast to earlier versions, the non-parallel special version is no longer there. -->
		<param name="numberOfThreads" value="1" />
		<!-- Boolean. `true': stuck vehicles are removed, aborting the plan; `false': stuck vehicles are forced into the next link. `false' is probably the better choice. -->
		<param name="removeStuckVehicles" value="false" />
		<!-- If link dynamics is set as SeepageQ, set a seep mode. Default is bike. -->
		<param name="seepMode" value="bike" />
		<!-- Possible values: minOfEndtimeAndMobsimFinished, onlyUseEndtime -->
		<param name="simEndtimeInterpretation" value="null" />
		<!-- Options: maxOfStarttimeAndEarliestActivityEnd onlyUseStarttime  -->
		<param name="simStarttimeInterpretation" value="maxOfStarttimeAndEarliestActivityEnd" />
		<!-- snapshotStyle. One of: equiDist queue withHoles withHolesAndShowHoles kinematicWaves  -->
		<param name="snapshotStyle" value="equiDist" />
		<param name="snapshotperiod" value="00:00:00" />
		<param name="startTime" value="00:00:00" />
		<param name="storageCapacityFactor" value="1.0" />
		<!-- time in seconds.  Time after which the frontmost vehicle on a link is called `stuck' if it does not move. -->
		<param name="stuckTime" value="10.0" />
		<param name="timeStepSize" value="00:00:01" />
		<!-- options: queue withHoles kinematicWaves  -->
		<param name="trafficDynamics" value="queue" />
		<!-- Set this parameter to true if lanes should be used, false if not. -->
		<param name="useLanes" value="false" />
		<!-- If a route does not reference a vehicle, agents will use the vehicle with the same id as their own. -->
		<param name="usePersonIdForMissingVehicleId" value="true" />
		<!-- If false, the qsim accumulates fractional flows up to one flow unit in every time step.  If true, flows are updated only if an agent wants to enter the link or an agent is added to buffer. Default is true. -->
		<param name="usingFastCapacityUpdate" value="true" />
		<!-- if the qsim should use as many runners as there are threads (Christoph's dissertation version) or more of them, together with a thread pool (seems to be faster in some situations, but is not tested). -->
		<param name="usingThreadpool" value="true" />
		<!-- Defines what happens if an agent wants to depart, but the specified vehicle is not available. One of: teleport wait exception  -->
		<param name="vehicleBehavior" value="teleport" />
		<!-- If vehicles should all be the same default vehicle, or come from the vehicles file, or something else.  Possible values:  defaultVehicle modeVehicleTypesFromVehiclesData fromVehiclesData -->
		<param name="vehiclesSource" value="defaultVehicle" />
	</module>
<!-- ====================================================================== -->
	<module name="scenario" >
	</module>
<!-- ====================================================================== -->
	<module name="strategy" >
		<!-- the external executable will be called with a config file as argument.  This is the pathname to a possible skeleton config, to which additional information will be added.  Can be null. -->
		<param name="ExternalExeConfigTemplate" value="null" />
		<!-- time out value (in seconds) after which matsim will consider the external strategy as failed -->
		<param name="ExternalExeTimeOut" value="3600" />
		<!-- root directory for temporary files generated by the external executable. Provided as a service; I don't think this is used by MATSim. -->
		<param name="ExternalExeTmpFileRootDir" value="null" />
		<!-- fraction of iterations where innovative strategies are switched off.  Something link 0.8 should be good.  E.g. if you run from iteration 400 to iteration 500, innovation is switched off at iteration 480 -->
		<param name="fractionOfIterationsToDisableInnovation" value="Infinity" />
		<!-- maximum number of plans per agent.  ``0'' means ``infinity''.  Currently (2010), ``5'' is a good number -->
		<param name="maxAgentPlanMemorySize" value="5" />
		<!-- strategyName of PlanSelector for plans removal.  Possible defaults: WorstPlanSelector SelectRandom SelectExpBetaForRemoval ChangeExpBetaForRemoval PathSizeLogitSelectorForRemoval . The current default, WorstPlanSelector is not a good choice from a discrete choice theoretical perspective. Alternatives, however, have not been systematically tested. kai, feb'12 -->
		<param name="planSelectorForRemoval" value="WorstPlanSelector" />
		<parameterset type="strategysettings" >
			<!-- iteration after which strategy will be disabled.  most useful for ``innovative'' strategies (new routes, new times, ...). Normally, better use fractionOfIterationsToDisableInnovation -->
			<param name="disableAfterIteration" value="-1" />
			<!-- path to external executable (if applicable) -->
			<param name="executionPath" value="null" />
			<!-- strategyName of strategy.  Possible default names: SelectRandomBestScoreKeepLastSelectedChangeExpBetaSelectExpBetaSelectPathSizeLogit (selectors), ReRoute TimeAllocationMutator ChangeLegMode TimeAllocationMutator_ReRoute ChangeSingleLegMode ChangeSingleTripMode SubtourModeChoice ChangeTripMode TripSubtourModeChoice  (innovative strategies). -->
			<param name="strategyName" value="BestScore" />
			<!-- subpopulation to which the strategy applies. "null" refers to the default population, that is, the set of persons for which no explicit subpopulation is defined (ie no subpopulation attribute) -->
			<param name="subpopulation" value="null" />
			<!-- weight of a strategy: for each agent, a strategy will be selected with a probability proportional to its weight -->
			<param name="weight" value="0.9" />
		</parameterset>
		<parameterset type="strategysettings" >
			<!-- iteration after which strategy will be disabled.  most useful for ``innovative'' strategies (new routes, new times, ...). Normally, better use fractionOfIterationsToDisableInnovation -->
			<param name="disableAfterIteration" value="-1" />
			<!-- path to external executable (if applicable) -->
			<param name="executionPath" value="null" />
			<!-- strategyName of strategy.  Possible default names: SelectRandomBestScoreKeepLastSelectedChangeExpBetaSelectExpBetaSelectPathSizeLogit (selectors), ReRoute TimeAllocationMutator ChangeLegMode TimeAllocationMutator_ReRoute ChangeSingleLegMode ChangeSingleTripMode SubtourModeChoice ChangeTripMode TripSubtourModeChoice  (innovative strategies). -->
			<param name="strategyName" value="ReRoute" />
			<!-- subpopulation to which the strategy applies. "null" refers to the default population, that is, the set of persons for which no explicit subpopulation is defined (ie no subpopulation attribute) -->
			<param name="subpopulation" value="null" />
			<!-- weight of a strategy: for each agent, a strategy will be selected with a probability proportional to its weight -->
			<param name="weight" value="0.1" />
		</parameterset>
	</module>
<!-- ====================================================================== -->
	<module name="subtourModeChoice" >
		<!-- Defines the chain-based modes, seperated by commas -->
		<param name="chainBasedModes" value="car,bike" />
		<!-- Defines whether car availability must be considered or not. A agent has no car only if it has no license, or never access to a car -->
		<param name="considerCarAvailability" value="false" />
		<!-- Defines all the modes available, including chain-based modes, seperated by commas -->
		<param name="modes" value="car,pt,bike,walk" />
	</module>
<!-- ====================================================================== -->
	<module name="transit" >
		<!-- The Coordinates Reference System in which the coordinates are expressed in the input file. At import, the coordinates will be converted to the coordinate system defined in "global", and willbe converted back at export. If not specified, no conversion happens. -->
		<param name="inputScheduleCRS" value="null" />
		<!-- Optional input file containing additional attributes for transit lines, stored as ObjectAttributes. -->
		<param name="transitLinesAttributesFile" value="null" />
		<!-- Comma-separated list of transportation modes that are handled as transit. Defaults to 'pt'. -->
		<param name="transitModes" value="pt" />
		<!-- Input file containing the transit schedule to be simulated. -->
		<param name="transitScheduleFile" value="null" />
		<!-- Optional input file containing additional attributes for transit stop facilities, stored as ObjectAttributes. -->
		<param name="transitStopsAttributesFile" value="null" />
		<!-- Set this parameter to true if transit should be simulated, false if not. -->
		<param name="useTransit" value="false" />
		<!-- Input file containing the vehicles used by the departures in the transit schedule. -->
		<param name="vehiclesFile" value="null" />
	</module>
<!-- ====================================================================== -->
	<module name="transitRouter" >
		<!-- additional time the router allocates when a line switch happens. Can be interpreted as a 'safety' time that agents need to safely transfer from one line to another -->
		<param name="additionalTransferTime" value="0.0" />
		<!-- Factor with which direct walk generalized cost is multiplied before it is compared to the pt generalized cost.  Set to a very high value to reduce direct walk results. -->
		<param name="directWalkFactor" value="1.0" />
		<!-- step size to increase searchRadius if no stops are found -->
		<param name="extensionRadius" value="200.0" />
		<!-- maximum beeline distance between stops that agents could transfer to by walking -->
		<param name="maxBeelineWalkConnectionDistance" value="100.0" />
		<!-- the radius in which stop locations are searched, given a start or target coordinate -->
		<param name="searchRadius" value="1000.0" />
	</module>
<!-- ====================================================================== -->
	<module name="travelTimeCalculator" >
		<!-- Transport modes that will be respected by the travel time collector. 'car' is default, which includes also busses from the pt simulation module. Use this parameter in combination with 'filterModes' = true! -->
		<param name="analyzedModes" value="car" />
		<param name="calculateLinkToLinkTravelTimes" value="false" />
		<param name="calculateLinkTravelTimes" value="true" />
		<!-- If true, link travel times from legs performed on modes not included in the 'analyzedModes' parameter are ignored. -->
		<param name="filterModes" value="false" />
		<!-- The lenght (in sec) of the time period that is splited into time bins; an additional time bin is created to aggregate all travel times collected after maxTime -->
		<param name="maxTime" value="108000" />
		<!-- If true, link travel times are measured and calculated separately for each mode in analyzedModes. Other modes are ignored. If true, filterModes has no effect. -->
		<param name="separateModes" value="false" />
		<!-- How to deal with congested time bins that have no link entry events. `optimistic' assumes free speed (too optimistic); 'experimental_LastMile' is experimental and probably too pessimistic. -->
		<param name="travelTimeAggregator" value="optimistic" />
		<!-- The size of the time bin (in sec) into which the link travel times are aggregated for the router -->
		<param name="travelTimeBinSize" value="900" />
		<!-- possible values: TravelTimeCalculatorArray TravelTimeCalculatorHashMap  -->
		<param name="travelTimeCalculator" value="TravelTimeCalculatorArray" />
		<!-- How to deal with link entry times at different positions during the time bin. Currently supported: average, linearinterpolation -->
		<param name="travelTimeGetter" value="average" />
	</module>
<!-- ====================================================================== -->
	<module name="vehicles" >
		<param name="vehiclesFile" value="null" />
	</module>
<!-- ====================================================================== -->
	<module name="vspExperimental" >
		<!-- (do not use except of you have to) There was a problem with pt interaction scoring.  Some people solved it by overwriting the parameters of the pt interaction activity type.  Doing this now throws an Exception.  If you still insist on doing this, set the following to true. -->
		<param name="isAbleToOverwritePtInteractionParams" value="false" />
		<param name="isGeneratingBoardingDeniedEvent" value="false" />
		<!-- if an approximation of the opportunity cost of time is included into the radius calculation for location choice.`true' will be faster, but it is an approximation.  Default is `true'; `false' is available for backwards compatibility. -->
		<param name="isUsingOpportunityCostOfTimeForLocationChoice" value="true" />
		<param name="logitScaleParamForPlansRemoval" value="1.0" />
		<!-- Options: | ignore | info | warn | abort | .  When violating VSP defaults, this results in nothing, logfile infos, logfile warnings, or aborts.  Members of VSP should use `abort' or talk to kai. -->
		<param name="vspDefaultsCheckingLevel" value="ignore" />
		<!-- if true then writes output_events in output directory.  default is `false'. Will only work when lastIteration is multiple of events writing interval -->
		<param name="writingOutputEvents" value="true" />
	</module>
<!-- ====================================================================== -->

</config>

2018-05-31 18:05:38,119  INFO ControlerUtils:63 Complete config dump done.
2018-05-31 18:05:38,119  INFO ControlerUtils:64 Checking consistency of config...
2018-05-31 18:05:38,119  INFO VspConfigConsistencyCheckerImpl:58 NOT running vsp config consistency check because vsp defaults checking level is set to IGNORE
2018-05-31 18:05:38,119  INFO ControlerUtils:66 Checking consistency of config done.
2018-05-31 18:05:38,119 DEBUG NetworkRoutingProvider:75 requesting network routing module with routingMode=car;	mode=car
2018-05-31 18:05:38,120 DEBUG NetworkRoutingProvider:75 requesting network routing module with routingMode=car;	mode=car
2018-05-31 18:05:38,120  INFO Counter:61 [PersonPrepareForSim] handled person # 1
2018-05-31 18:05:38,121  INFO Counter:67 [PersonPrepareForSim] handled person # 1
2018-05-31 18:05:38,121  INFO Counter:61  vehicles # 1
2018-05-31 18:05:38,121  INFO AbstractController:121 ###################################################
2018-05-31 18:05:38,122  INFO AbstractController:122 ### ITERATION 0 BEGINS
2018-05-31 18:05:38,122  INFO ControlerListenerManagerImpl:145 calling notifyIterationStarts on org.matsim.analysis.LegHistogramListener
2018-05-31 18:05:38,122  INFO ControlerListenerManagerImpl:145 calling notifyIterationStarts on org.matsim.analysis.LinkStatsControlerListener
2018-05-31 18:05:38,122  INFO ControlerListenerManagerImpl:145 calling notifyIterationStarts on org.matsim.core.replanning.ReplanningContextImpl
2018-05-31 18:05:38,122  INFO ControlerListenerManagerImpl:145 calling notifyIterationStarts on org.matsim.core.scoring.ExperiencedPlansServiceImpl$1
2018-05-31 18:05:38,122  INFO ControlerListenerManagerImpl:145 calling notifyIterationStarts on org.matsim.core.scoring.ScoringFunctionsForPopulation$1
2018-05-31 18:05:38,131  INFO ControlerListenerManagerImpl:148 [it.0] all ControlerIterationStartsListeners called.
2018-05-31 18:05:38,131  INFO ControlerListenerManagerImpl:224 calling notifyBeforeMobsim on org.matsim.core.controler.corelisteners.EventsHandlingImpl
2018-05-31 18:05:38,131  INFO EventsManagerImpl:170 resetting Event-Handlers
2018-05-31 18:05:38,131  INFO EventsManagerImpl:177   org.matsim.core.trafficmonitoring.TravelTimeCalculator
2018-05-31 18:05:38,131  INFO EventsManagerImpl:177   org.matsim.core.scoring.EventsToLegs
2018-05-31 18:05:38,131  INFO EventsManagerImpl:177   org.matsim.analysis.VolumesAnalyzer
2018-05-31 18:05:38,131  INFO EventsManagerImpl:177   org.matsim.core.mobsim.qsim.QSimEventsIntegrationTest$2
2018-05-31 18:05:38,131  INFO EventsManagerImpl:177   org.matsim.core.scoring.EventsToActivities
2018-05-31 18:05:38,131  INFO EventsManagerImpl:177   org.matsim.analysis.CalcLegTimes
2018-05-31 18:05:38,131  INFO EventsManagerImpl:177   org.matsim.analysis.LegHistogram
2018-05-31 18:05:38,132  INFO EventsManagerImpl:177   org.matsim.core.scoring.ScoringFunctionsForPopulation
2018-05-31 18:05:38,132  INFO EventsManagerImpl:144 adding Event-Handler: org.matsim.core.events.algorithms.EventWriterXML
2018-05-31 18:05:38,132  INFO EventsManagerImpl:148   org.matsim.core.events.algorithms.EventWriter
2018-05-31 18:05:38,132  INFO EventsManagerImpl:148   org.matsim.core.events.handler.BasicEventHandler
2018-05-31 18:05:38,132  INFO EventsManagerImpl:207     > org.matsim.api.core.v01.events.Event
2018-05-31 18:05:38,132  INFO EventsManagerImpl:156 
2018-05-31 18:05:38,133  INFO EventsManagerImpl:144 adding Event-Handler: org.matsim.core.events.algorithms.EventWriterXML
2018-05-31 18:05:38,133  INFO EventsManagerImpl:148   org.matsim.core.events.algorithms.EventWriter
2018-05-31 18:05:38,133  INFO EventsManagerImpl:148   org.matsim.core.events.handler.BasicEventHandler
2018-05-31 18:05:38,133  INFO EventsManagerImpl:207     > org.matsim.api.core.v01.events.Event
2018-05-31 18:05:38,133  INFO EventsManagerImpl:156 
2018-05-31 18:05:38,133  INFO ControlerListenerManagerImpl:224 calling notifyBeforeMobsim on org.matsim.core.controler.corelisteners.PlansDumpingImpl
2018-05-31 18:05:38,133  INFO PlansDumpingImpl:75 dumping plans...
2018-05-31 18:05:38,134  INFO Counter:61 [PopulationWriter] dumped person # 1
2018-05-31 18:05:38,134  INFO PopulationWriter:139 Population written to: test/output/org/matsim/core/mobsim/qsim/QSimEventsIntegrationTest/controlerHandlesExceptionCorrectly/ITERS/it.0/0.plans.xml.gz
2018-05-31 18:05:38,134  INFO Counter:67 [PopulationWriter] dumped person # 1
2018-05-31 18:05:38,134  INFO PlansDumpingImpl:92 finished plans dump.
2018-05-31 18:05:38,135  INFO ControlerListenerManagerImpl:229 calling notifyBeforeMobsim on org.matsim.core.population.VspPlansCleaner
2018-05-31 18:05:38,135  INFO ControlerListenerManagerImpl:232 [it.0] all ControlerBeforeMobsimListeners called.
2018-05-31 18:05:38,138  INFO MobsimListenerManager:49 calling addQueueSimulationListener
2018-05-31 18:05:38,138  INFO MobsimListenerManager:53   assigned class org.matsim.core.mobsim.framework.listeners.MobsimListener to interface org.matsim.core.mobsim.framework.listeners.MobsimAfterSimStepListener
2018-05-31 18:05:38,139  INFO MobsimListenerManager:53   assigned class org.matsim.core.mobsim.framework.listeners.MobsimListener to interface org.matsim.core.mobsim.framework.listeners.MobsimListener
2018-05-31 18:05:38,139  INFO MobsimListenerManager:53   assigned class org.matsim.core.mobsim.framework.listeners.MobsimListener to interface org.matsim.vis.snapshotwriters.SnapshotWriterManager
2018-05-31 18:05:38,139  INFO MobsimListenerManager:53   assigned class org.matsim.core.mobsim.framework.listeners.MobsimListener to interface org.matsim.core.mobsim.framework.listeners.MobsimInitializedListener
2018-05-31 18:05:38,139  INFO MobsimListenerManager:53   assigned class org.matsim.core.mobsim.framework.listeners.MobsimListener to interface org.matsim.core.mobsim.framework.listeners.MobsimBeforeCleanupListener
2018-05-31 18:05:38,139  WARN QueueWithBuffer:377 Link 1 too small: enlarge storage capacity from: 1333.3333333333333 Vehicles to: 3599.712023038157 Vehicles.  This is not fatal, but modifies the traffic flow dynamics.
2018-05-31 18:05:38,140  WARN QueueWithBuffer:377 Link 20 too small: enlarge storage capacity from: 1333.3333333333333 Vehicles to: 3599.712023038157 Vehicles.  This is not fatal, but modifies the traffic flow dynamics.
2018-05-31 18:05:38,140  WARN QueueWithBuffer:377 Link 21 too small: enlarge storage capacity from: 1333.3333333333333 Vehicles to: 3599.712023038157 Vehicles.  This is not fatal, but modifies the traffic flow dynamics.
2018-05-31 18:05:38,140  WARN QueueWithBuffer:380 Additional warnings of this type are suppressed.
2018-05-31 18:05:38,141  INFO Injector:80 === printInjector start ===
2018-05-31 18:05:38,141  INFO Injector:84 org.matsim.core.mobsim.qsim.qnetsimengine.VehicularDepartureHandler 
2018-05-31 18:05:38,141  INFO Injector:85   --> provider: Key[type=org.matsim.core.mobsim.qsim.qnetsimengine.QNetsimEngineDepartureHandlerProvider, annotation=[none]][Scopes.SINGLETON]
2018-05-31 18:05:38,141  INFO Injector:86   --> source: org.matsim.core.mobsim.qsim.qnetsimengine.QNetsimEnginePlugin$1.configure(QNetsimEnginePlugin.java:25)
2018-05-31 18:05:38,141  INFO Injector:88   --> scope: eager singleton
2018-05-31 18:05:38,141  INFO Injector:92 
2018-05-31 18:05:38,142  INFO Injector:84 org.matsim.core.mobsim.qsim.agents.AgentFactory 
2018-05-31 18:05:38,142  INFO Injector:85   --> provider: FactoryProxy{key=Key[type=org.matsim.core.mobsim.qsim.agents.AgentFactory, annotation=[none]], provider=com.google.inject.internal.ConstructorBindingImpl$Factory@2d4bd914}[Scopes.SINGLETON]
2018-05-31 18:05:38,142  INFO Injector:86   --> source: org.matsim.core.mobsim.qsim.PopulationPlugin$1.configure(PopulationPlugin.java:30)
2018-05-31 18:05:38,142  INFO Injector:88   --> scope: eager singleton
2018-05-31 18:05:38,142  INFO Injector:92 
2018-05-31 18:05:38,142  INFO Injector:84 org.matsim.core.mobsim.qsim.interfaces.Netsim 
2018-05-31 18:05:38,142  INFO Injector:85   --> provider: FactoryProxy{key=Key[type=org.matsim.core.mobsim.qsim.interfaces.Netsim, annotation=[none]], provider=com.google.inject.internal.ConstructorBindingImpl$Factory@6530068a[Scopes.SINGLETON]}
2018-05-31 18:05:38,142  INFO Injector:86   --> source: org.matsim.core.mobsim.qsim.QSimProvider$1.configure(QSimProvider.java:65)
2018-05-31 18:05:38,142  INFO Injector:88   --> scope: Scopes.NO_SCOPE
2018-05-31 18:05:38,142  INFO Injector:92 
2018-05-31 18:05:38,143  INFO Injector:84 org.matsim.core.mobsim.jdeqsim.MessageQueue 
2018-05-31 18:05:38,143  INFO Injector:85   --> provider: com.google.inject.internal.ConstructorBindingImpl$Factory@147d66e0[Scopes.SINGLETON]
2018-05-31 18:05:38,143  INFO Injector:86   --> source: org.matsim.core.mobsim.qsim.messagequeueengine.MessageQueuePlugin$1.configure(MessageQueuePlugin.java:24)
2018-05-31 18:05:38,143  INFO Injector:88   --> scope: eager singleton
2018-05-31 18:05:38,143  INFO Injector:92 
2018-05-31 18:05:38,143  INFO Injector:84 org.matsim.core.mobsim.qsim.jdeqsimengine.SteppableScheduler 
2018-05-31 18:05:38,143  INFO Injector:85   --> provider: com.google.inject.internal.ConstructorBindingImpl$Factory@22a25684[Scopes.SINGLETON]
2018-05-31 18:05:38,143  INFO Injector:86   --> source: org.matsim.core.mobsim.qsim.messagequeueengine.MessageQueuePlugin$1.configure(MessageQueuePlugin.java:25)
2018-05-31 18:05:38,143  INFO Injector:88   --> scope: eager singleton
2018-05-31 18:05:38,144  INFO Injector:92 
2018-05-31 18:05:38,144  INFO Injector:84 org.matsim.core.mobsim.qsim.messagequeueengine.MessageQueueEngine 
2018-05-31 18:05:38,144  INFO Injector:85   --> provider: com.google.inject.internal.ConstructorBindingImpl$Factory@1b11589e[Scopes.SINGLETON]
2018-05-31 18:05:38,144  INFO Injector:86   --> source: org.matsim.core.mobsim.qsim.messagequeueengine.MessageQueuePlugin$1.configure(MessageQueuePlugin.java:26)
2018-05-31 18:05:38,144  INFO Injector:88   --> scope: eager singleton
2018-05-31 18:05:38,144  INFO Injector:92 
2018-05-31 18:05:38,144  INFO Injector:84 org.matsim.core.mobsim.qsim.ActivityEngine 
2018-05-31 18:05:38,144  INFO Injector:85   --> provider: com.google.inject.internal.ConstructorBindingImpl$Factory@2f1c7843[Scopes.SINGLETON]
2018-05-31 18:05:38,144  INFO Injector:86   --> source: org.matsim.core.mobsim.qsim.ActivityEnginePlugin$1.configure(ActivityEnginePlugin.java:23)
2018-05-31 18:05:38,144  INFO Injector:88   --> scope: eager singleton
2018-05-31 18:05:38,145  INFO Injector:92 
2018-05-31 18:05:38,145  INFO Injector:84 org.matsim.core.mobsim.qsim.qnetsimengine.QNetsimEngine 
2018-05-31 18:05:38,145  INFO Injector:85   --> provider: com.google.inject.internal.ConstructorBindingImpl$Factory@73875feb[Scopes.SINGLETON]
2018-05-31 18:05:38,145  INFO Injector:86   --> source: org.matsim.core.mobsim.qsim.qnetsimengine.QNetsimEnginePlugin$1.configure(QNetsimEnginePlugin.java:24)
2018-05-31 18:05:38,145  INFO Injector:88   --> scope: eager singleton
2018-05-31 18:05:38,145  INFO Injector:92 
2018-05-31 18:05:38,145  INFO Injector:84 org.matsim.core.mobsim.qsim.DefaultTeleportationEngine 
2018-05-31 18:05:38,145  INFO Injector:85   --> provider: com.google.inject.internal.ConstructorBindingImpl$Factory@35acaae5[Scopes.SINGLETON]
2018-05-31 18:05:38,145  INFO Injector:86   --> source: org.matsim.core.mobsim.qsim.TeleportationPlugin$1.configure(TeleportationPlugin.java:21)
2018-05-31 18:05:38,146  INFO Injector:88   --> scope: eager singleton
2018-05-31 18:05:38,146  INFO Injector:92 
2018-05-31 18:05:38,146  INFO Injector:84 org.matsim.core.mobsim.qsim.agents.PopulationAgentSource 
2018-05-31 18:05:38,146  INFO Injector:85   --> provider: com.google.inject.internal.ConstructorBindingImpl$Factory@582eeda8[Scopes.SINGLETON]
2018-05-31 18:05:38,146  INFO Injector:86   --> source: org.matsim.core.mobsim.qsim.PopulationPlugin$1.configure(PopulationPlugin.java:26)
2018-05-31 18:05:38,146  INFO Injector:88   --> scope: eager singleton
2018-05-31 18:05:38,146  INFO Injector:92 
2018-05-31 18:05:38,146  INFO Injector:84 org.matsim.core.mobsim.qsim.QSim 
2018-05-31 18:05:38,146  INFO Injector:85   --> provider: com.google.inject.internal.ConstructorBindingImpl$Factory@6530068a[Scopes.SINGLETON]
2018-05-31 18:05:38,147  INFO Injector:86   --> source: org.matsim.core.mobsim.qsim.QSimProvider$1.configure(QSimProvider.java:64)
2018-05-31 18:05:38,147  INFO Injector:88   --> scope: eager singleton
2018-05-31 18:05:38,147  INFO Injector:92 
2018-05-31 18:05:38,147  INFO Injector:95 === printInjector end ===
2018-05-31 18:05:38,147  INFO MobsimListenerManager:49 calling addQueueSimulationListener
2018-05-31 18:05:38,147  INFO MobsimListenerManager:53   assigned class org.matsim.core.mobsim.framework.listeners.MobsimListener to interface org.matsim.core.mobsim.framework.listeners.MobsimBeforeSimStepListener
2018-05-31 18:05:38,147  INFO MobsimListenerManager:53   assigned class org.matsim.core.mobsim.framework.listeners.MobsimListener to interface org.matsim.core.mobsim.framework.listeners.MobsimListener
2018-05-31 18:05:38,147  INFO MobsimListenerManager:53   assigned class org.matsim.core.mobsim.framework.listeners.MobsimListener to interface org.matsim.core.mobsim.qsim.messagequeueengine.MessageQueueEngine
2018-05-31 18:05:38,148  INFO QNetsimEngine:504 Assigned 15 nodes and 23 links to QSimEngineRunner #0
2018-05-31 18:05:38,148  INFO EventsManagerImpl:134  event # 1
2018-05-31 18:05:38,148  INFO QNetsimEngine:347 SIMULATION (QNetsimEngine) AT 06:00:00 : #links=0 #nodes=1
2018-05-31 18:05:38,149  INFO QSim:506 SIMULATION (NEW QSim) AT 06:00:00 : #Veh=1 lost=0 simT=0.0s realT=0s; (s/r): 0.0
2018-05-31 18:05:38,149  INFO Gbl:54 used RAM: 70133160B = 68489kB = 66MB  free: 428989016B = 409MB  total: 499122176B = 476MB
2018-05-31 18:05:38,150  INFO EventsManagerImpl:134  event # 4
2018-05-31 18:05:38,150 ERROR SimStepParallelEventsManagerImpl$ExceptionHandler:420 Thread class org.matsim.core.events.SimStepParallelEventsManagerImpl$ProcessEventsRunnable0 died with exception while handling events.
java.lang.RuntimeException: Haha, I hope the QSim exits cleanly.
	at org.matsim.core.mobsim.qsim.QSimEventsIntegrationTest$2.handleEvent(QSimEventsIntegrationTest.java:68)
	at org.matsim.core.events.EventsManagerImpl.callHandlerFast(EventsManagerImpl.java:288)
	at org.matsim.core.events.EventsManagerImpl.computeEvent(EventsManagerImpl.java:222)
	at org.matsim.core.events.EventsManagerImpl.processEvent(EventsManagerImpl.java:136)
	at org.matsim.core.events.SimStepParallelEventsManagerImpl$ProcessEventsRunnable.run(SimStepParallelEventsManagerImpl.java:330)
	at java.lang.Thread.run(Thread.java:745)
2018-05-31 18:05:38,151 ERROR AbstractController:198 Mobsim did not complete normally! afterMobsimListeners will be called anyway.
java.lang.RuntimeException: Exception while processing events. Cannot guarantee that all events have been fully processed.
	at org.matsim.core.events.SimStepParallelEventsManagerImpl.finishProcessing(SimStepParallelEventsManagerImpl.java:212)
	at org.matsim.core.mobsim.qsim.QSim.cleanupSim(QSim.java:319)
	at org.matsim.core.mobsim.qsim.QSim.run(QSim.java:244)
	at org.matsim.core.controler.NewControler.runMobSim(NewControler.java:111)
	at org.matsim.core.controler.AbstractController$7.run(AbstractController.java:187)
	at org.matsim.core.controler.AbstractController.iterationStep(AbstractController.java:219)
	at org.matsim.core.controler.AbstractController.mobsim(AbstractController.java:183)
	at org.matsim.core.controler.AbstractController.iteration(AbstractController.java:142)
	at org.matsim.core.controler.AbstractController.doIterations(AbstractController.java:110)
	at org.matsim.core.controler.AbstractController.access$000(AbstractController.java:28)
	at org.matsim.core.controler.AbstractController$1.run(AbstractController.java:80)
	at org.matsim.core.controler.MatsimRuntimeModifications.run(MatsimRuntimeModifications.java:48)
	at org.matsim.core.controler.MatsimRuntimeModifications.run(MatsimRuntimeModifications.java:31)
	at org.matsim.core.controler.AbstractController.run(AbstractController.java:88)
	at org.matsim.core.controler.NewControler.run(NewControler.java:75)
	at org.matsim.core.controler.Controler.run(Controler.java:203)
	at org.matsim.core.mobsim.qsim.QSimEventsIntegrationTest.controlerHandlesExceptionCorrectly(QSimEventsIntegrationTest.java:77)
	at sun.reflect.NativeMethodAccessorImpl.invoke0(Native Method)
	at sun.reflect.NativeMethodAccessorImpl.invoke(NativeMethodAccessorImpl.java:62)
	at sun.reflect.DelegatingMethodAccessorImpl.invoke(DelegatingMethodAccessorImpl.java:43)
	at java.lang.reflect.Method.invoke(Method.java:498)
	at org.junit.runners.model.FrameworkMethod$1.runReflectiveCall(FrameworkMethod.java:50)
	at org.junit.internal.runners.model.ReflectiveCallable.run(ReflectiveCallable.java:12)
	at org.junit.runners.model.FrameworkMethod.invokeExplosively(FrameworkMethod.java:47)
	at org.junit.internal.runners.statements.InvokeMethod.evaluate(InvokeMethod.java:17)
	at org.junit.rules.TestWatchman$1.evaluate(TestWatchman.java:53)
	at org.junit.internal.runners.statements.FailOnTimeout$CallableStatement.call(FailOnTimeout.java:298)
	at org.junit.internal.runners.statements.FailOnTimeout$CallableStatement.call(FailOnTimeout.java:292)
	at java.util.concurrent.FutureTask.run(FutureTask.java:266)
	at java.lang.Thread.run(Thread.java:745)
Caused by: java.lang.RuntimeException: Haha, I hope the QSim exits cleanly.
	at org.matsim.core.mobsim.qsim.QSimEventsIntegrationTest$2.handleEvent(QSimEventsIntegrationTest.java:68)
	at org.matsim.core.events.EventsManagerImpl.callHandlerFast(EventsManagerImpl.java:288)
	at org.matsim.core.events.EventsManagerImpl.computeEvent(EventsManagerImpl.java:222)
	at org.matsim.core.events.EventsManagerImpl.processEvent(EventsManagerImpl.java:136)
	at org.matsim.core.events.SimStepParallelEventsManagerImpl$ProcessEventsRunnable.run(SimStepParallelEventsManagerImpl.java:330)
	... 1 more
2018-05-31 18:05:38,151  INFO AbstractController$8:210 ### ITERATION 0 fires after mobsim event
2018-05-31 18:05:38,152  INFO ControlerListenerManagerImpl:248 calling notifyAfterMobsim on org.matsim.analysis.LegTimesControlerListener
2018-05-31 18:05:38,152  INFO LegTimesControlerListener:50 [0] average trip (probably: leg) duration is: 0 seconds = 00:00:00
2018-05-31 18:05:38,152  INFO ControlerListenerManagerImpl:248 calling notifyAfterMobsim on org.matsim.core.scoring.EventsToActivities$1
2018-05-31 18:05:38,152  INFO ControlerListenerManagerImpl:251 [it.0] all ControlerAfterMobsimListeners called.
2018-05-31 18:05:38,152 ERROR MatsimRuntimeModifications:54 Getting uncaught Exception in Thread Time-limited test
java.lang.RuntimeException: Exception while processing events. Cannot guarantee that all events have been fully processed.
	at org.matsim.core.events.SimStepParallelEventsManagerImpl.finishProcessing(SimStepParallelEventsManagerImpl.java:212)
	at org.matsim.core.mobsim.qsim.QSim.cleanupSim(QSim.java:319)
	at org.matsim.core.mobsim.qsim.QSim.run(QSim.java:244)
	at org.matsim.core.controler.NewControler.runMobSim(NewControler.java:111)
	at org.matsim.core.controler.AbstractController$7.run(AbstractController.java:187)
	at org.matsim.core.controler.AbstractController.iterationStep(AbstractController.java:219)
	at org.matsim.core.controler.AbstractController.mobsim(AbstractController.java:183)
	at org.matsim.core.controler.AbstractController.iteration(AbstractController.java:142)
	at org.matsim.core.controler.AbstractController.doIterations(AbstractController.java:110)
	at org.matsim.core.controler.AbstractController.access$000(AbstractController.java:28)
	at org.matsim.core.controler.AbstractController$1.run(AbstractController.java:80)
	at org.matsim.core.controler.MatsimRuntimeModifications.run(MatsimRuntimeModifications.java:48)
	at org.matsim.core.controler.MatsimRuntimeModifications.run(MatsimRuntimeModifications.java:31)
	at org.matsim.core.controler.AbstractController.run(AbstractController.java:88)
	at org.matsim.core.controler.NewControler.run(NewControler.java:75)
	at org.matsim.core.controler.Controler.run(Controler.java:203)
	at org.matsim.core.mobsim.qsim.QSimEventsIntegrationTest.controlerHandlesExceptionCorrectly(QSimEventsIntegrationTest.java:77)
	at sun.reflect.NativeMethodAccessorImpl.invoke0(Native Method)
	at sun.reflect.NativeMethodAccessorImpl.invoke(NativeMethodAccessorImpl.java:62)
	at sun.reflect.DelegatingMethodAccessorImpl.invoke(DelegatingMethodAccessorImpl.java:43)
	at java.lang.reflect.Method.invoke(Method.java:498)
	at org.junit.runners.model.FrameworkMethod$1.runReflectiveCall(FrameworkMethod.java:50)
	at org.junit.internal.runners.model.ReflectiveCallable.run(ReflectiveCallable.java:12)
	at org.junit.runners.model.FrameworkMethod.invokeExplosively(FrameworkMethod.java:47)
	at org.junit.internal.runners.statements.InvokeMethod.evaluate(InvokeMethod.java:17)
	at org.junit.rules.TestWatchman$1.evaluate(TestWatchman.java:53)
	at org.junit.internal.runners.statements.FailOnTimeout$CallableStatement.call(FailOnTimeout.java:298)
	at org.junit.internal.runners.statements.FailOnTimeout$CallableStatement.call(FailOnTimeout.java:292)
	at java.util.concurrent.FutureTask.run(FutureTask.java:266)
	at java.lang.Thread.run(Thread.java:745)
Caused by: java.lang.RuntimeException: Haha, I hope the QSim exits cleanly.
	at org.matsim.core.mobsim.qsim.QSimEventsIntegrationTest$2.handleEvent(QSimEventsIntegrationTest.java:68)
	at org.matsim.core.events.EventsManagerImpl.callHandlerFast(EventsManagerImpl.java:288)
	at org.matsim.core.events.EventsManagerImpl.computeEvent(EventsManagerImpl.java:222)
	at org.matsim.core.events.EventsManagerImpl.processEvent(EventsManagerImpl.java:136)
	at org.matsim.core.events.SimStepParallelEventsManagerImpl$ProcessEventsRunnable.run(SimStepParallelEventsManagerImpl.java:330)
	... 1 more
2018-05-31 18:05:38,153  INFO MatsimRuntimeModifications:58 S H U T D O W N   ---   start shutdown.
2018-05-31 18:05:38,153 ERROR MatsimRuntimeModifications:60 ERROR --- This is an unexpected shutdown!
2018-05-31 18:05:38,153 ERROR MatsimRuntimeModifications:63 Shutdown possibly caused by the following Exception:
java.lang.RuntimeException: Exception while processing events. Cannot guarantee that all events have been fully processed.
	at org.matsim.core.events.SimStepParallelEventsManagerImpl.finishProcessing(SimStepParallelEventsManagerImpl.java:212)
	at org.matsim.core.mobsim.qsim.QSim.cleanupSim(QSim.java:319)
	at org.matsim.core.mobsim.qsim.QSim.run(QSim.java:244)
	at org.matsim.core.controler.NewControler.runMobSim(NewControler.java:111)
	at org.matsim.core.controler.AbstractController$7.run(AbstractController.java:187)
	at org.matsim.core.controler.AbstractController.iterationStep(AbstractController.java:219)
	at org.matsim.core.controler.AbstractController.mobsim(AbstractController.java:183)
	at org.matsim.core.controler.AbstractController.iteration(AbstractController.java:142)
	at org.matsim.core.controler.AbstractController.doIterations(AbstractController.java:110)
	at org.matsim.core.controler.AbstractController.access$000(AbstractController.java:28)
	at org.matsim.core.controler.AbstractController$1.run(AbstractController.java:80)
	at org.matsim.core.controler.MatsimRuntimeModifications.run(MatsimRuntimeModifications.java:48)
	at org.matsim.core.controler.MatsimRuntimeModifications.run(MatsimRuntimeModifications.java:31)
	at org.matsim.core.controler.AbstractController.run(AbstractController.java:88)
	at org.matsim.core.controler.NewControler.run(NewControler.java:75)
	at org.matsim.core.controler.Controler.run(Controler.java:203)
	at org.matsim.core.mobsim.qsim.QSimEventsIntegrationTest.controlerHandlesExceptionCorrectly(QSimEventsIntegrationTest.java:77)
	at sun.reflect.NativeMethodAccessorImpl.invoke0(Native Method)
	at sun.reflect.NativeMethodAccessorImpl.invoke(NativeMethodAccessorImpl.java:62)
	at sun.reflect.DelegatingMethodAccessorImpl.invoke(DelegatingMethodAccessorImpl.java:43)
	at java.lang.reflect.Method.invoke(Method.java:498)
	at org.junit.runners.model.FrameworkMethod$1.runReflectiveCall(FrameworkMethod.java:50)
	at org.junit.internal.runners.model.ReflectiveCallable.run(ReflectiveCallable.java:12)
	at org.junit.runners.model.FrameworkMethod.invokeExplosively(FrameworkMethod.java:47)
	at org.junit.internal.runners.statements.InvokeMethod.evaluate(InvokeMethod.java:17)
	at org.junit.rules.TestWatchman$1.evaluate(TestWatchman.java:53)
	at org.junit.internal.runners.statements.FailOnTimeout$CallableStatement.call(FailOnTimeout.java:298)
	at org.junit.internal.runners.statements.FailOnTimeout$CallableStatement.call(FailOnTimeout.java:292)
	at java.util.concurrent.FutureTask.run(FutureTask.java:266)
	at java.lang.Thread.run(Thread.java:745)
Caused by: java.lang.RuntimeException: Haha, I hope the QSim exits cleanly.
	at org.matsim.core.mobsim.qsim.QSimEventsIntegrationTest$2.handleEvent(QSimEventsIntegrationTest.java:68)
	at org.matsim.core.events.EventsManagerImpl.callHandlerFast(EventsManagerImpl.java:288)
	at org.matsim.core.events.EventsManagerImpl.computeEvent(EventsManagerImpl.java:222)
	at org.matsim.core.events.EventsManagerImpl.processEvent(EventsManagerImpl.java:136)
	at org.matsim.core.events.SimStepParallelEventsManagerImpl$ProcessEventsRunnable.run(SimStepParallelEventsManagerImpl.java:330)
	... 1 more
2018-05-31 18:05:38,153  INFO ControlerListenerManagerImpl:121 calling notifyShutdown on org.matsim.core.controler.corelisteners.EventsHandlingImpl
2018-05-31 18:05:38,153  INFO ControlerListenerManagerImpl:121 calling notifyShutdown on org.matsim.core.controler.corelisteners.DumpDataAtEndImpl
2018-05-31 18:05:38,154  INFO ControlerListenerManagerImpl:126 calling notifyShutdown on org.matsim.analysis.ModeStatsControlerListener
2018-05-31 18:05:38,154  INFO ControlerListenerManagerImpl:126 calling notifyShutdown on org.matsim.analysis.ScoreStatsControlerListener
2018-05-31 18:05:38,154  INFO ControlerListenerManagerImpl:126 calling notifyShutdown on org.matsim.analysis.TravelDistanceStatsControlerListener
2018-05-31 18:05:38,154  INFO ControlerListenerManagerImpl:129 all ControlerShutdownListeners called.
2018-05-31 18:05:38,154 ERROR MatsimRuntimeModifications:78 ERROR --- MATSim unexpectedly terminated. Please check the output or the logfile with warnings and errors for hints.
2018-05-31 18:05:38,154 ERROR MatsimRuntimeModifications:79 ERROR --- results should not be used for further analysis.
2018-05-31 18:05:38,154  INFO MatsimRuntimeModifications:81 S H U T D O W N   ---   shutdown completed.
2018-05-31 18:05:38,154 ERROR MatsimRuntimeModifications:83 ERROR --- This was an unexpected shutdown! See the log file for a possible reason.
2018-05-31 18:05:38,155  INFO IOUtils:73 String test/scenarios/equil/config_plans1.xml does not exist as file on the file system; trying it as a resource ...
2018-05-31 18:05:38,156  INFO Config:561 setting context to [file:/root/workspace/matsim-org/matsim/386233578/matsim/]
2018-05-31 18:05:38,159  WARN MatsimXmlParser:155 starting to parse xml from url file:/root/workspace/matsim-org/matsim/386233578/examples/target/classes/test/scenarios/equil/config_plans1.xml ...
2018-05-31 18:05:38,161  INFO ConfigReader:102 using config_v2-reader
2018-05-31 18:05:38,161  INFO MatsimXmlParser:307 Using local DTD from classpath:dtd/config_v2.dtd
2018-05-31 18:05:38,164  INFO Config:561 setting context to [file:/root/workspace/matsim-org/matsim/386233578/examples/target/classes/test/scenarios/equil/config_plans1.xml]
2018-05-31 18:05:38,165  INFO ScenarioLoaderImpl:108 loading scenario from base directory: /root/workspace/matsim-org/matsim/386233578/matsim/
2018-05-31 18:05:38,165  INFO ScenarioLoaderImpl:130 loading network from file:/root/workspace/matsim-org/matsim/386233578/examples/target/classes/test/scenarios/equil/network.xml
2018-05-31 18:05:38,165  WARN MatsimXmlParser:155 starting to parse xml from url file:/root/workspace/matsim-org/matsim/386233578/examples/target/classes/test/scenarios/equil/network.xml ...
2018-05-31 18:05:38,167  INFO MatsimNetworkReader:90 using network_v1-reader.
2018-05-31 18:05:38,167  INFO MatsimXmlParser:307 Using local DTD from classpath:dtd/network_v1.dtd
2018-05-31 18:05:38,168  INFO NetworkImpl:167  node # 1
2018-05-31 18:05:38,168  INFO NetworkImpl:167  node # 4
2018-05-31 18:05:38,168  INFO NetworkImpl:163  link # 1
2018-05-31 18:05:38,169  INFO NetworkImpl:163  link # 4
2018-05-31 18:05:38,169  INFO NetworkImpl:163  link # 16
2018-05-31 18:05:38,170  INFO ScenarioLoaderImpl:161 loading facilities from file:/root/workspace/matsim-org/matsim/386233578/examples/target/classes/test/scenarios/equil/facilities.xml
2018-05-31 18:05:38,170  WARN MatsimXmlParser:155 starting to parse xml from url file:/root/workspace/matsim-org/matsim/386233578/examples/target/classes/test/scenarios/equil/facilities.xml ...
[...]
2018-05-31 18:05:38,589  INFO EventsManagerImpl:177   org.matsim.analysis.LegHistogram
2018-05-31 18:05:38,589  INFO EventsManagerImpl:177   org.matsim.core.scoring.ScoringFunctionsForPopulation
2018-05-31 18:05:38,589  INFO EventsManagerImpl:177   org.matsim.core.mobsim.qsim.TeleportationEngineWDistanceCheckTest$1$1
2018-05-31 18:05:38,589  INFO EventsManagerImpl:144 adding Event-Handler: org.matsim.core.events.algorithms.EventWriterXML
2018-05-31 18:05:38,590  INFO EventsManagerImpl:148   org.matsim.core.events.algorithms.EventWriter
2018-05-31 18:05:38,590  INFO EventsManagerImpl:148   org.matsim.core.events.handler.BasicEventHandler
2018-05-31 18:05:38,590  INFO EventsManagerImpl:207     > org.matsim.api.core.v01.events.Event
2018-05-31 18:05:38,590  INFO EventsManagerImpl:156 
2018-05-31 18:05:38,590  INFO EventsManagerImpl:144 adding Event-Handler: org.matsim.core.events.algorithms.EventWriterXML
2018-05-31 18:05:38,590  INFO EventsManagerImpl:148   org.matsim.core.events.algorithms.EventWriter
2018-05-31 18:05:38,591  INFO EventsManagerImpl:148   org.matsim.core.events.handler.BasicEventHandler
2018-05-31 18:05:38,591  INFO EventsManagerImpl:207     > org.matsim.api.core.v01.events.Event
2018-05-31 18:05:38,591  INFO EventsManagerImpl:156 
2018-05-31 18:05:38,591  INFO ControlerListenerManagerImpl:224 calling notifyBeforeMobsim on org.matsim.core.controler.corelisteners.PlansDumpingImpl
2018-05-31 18:05:38,591  INFO PlansDumpingImpl:75 dumping plans...
2018-05-31 18:05:38,592  INFO Counter:61 [PopulationWriter] dumped person # 1
2018-05-31 18:05:38,592  INFO PopulationWriter:139 Population written to: test/output/org/matsim/core/mobsim/qsim/TeleportationEngineWDistanceCheckTest/test/ITERS/it.0/0.plans.xml.gz
2018-05-31 18:05:38,592  INFO Counter:67 [PopulationWriter] dumped person # 1
2018-05-31 18:05:38,593  INFO PlansDumpingImpl:92 finished plans dump.
2018-05-31 18:05:38,593  INFO ControlerListenerManagerImpl:229 calling notifyBeforeMobsim on org.matsim.core.population.VspPlansCleaner
2018-05-31 18:05:38,593  INFO ControlerListenerManagerImpl:232 [it.0] all ControlerBeforeMobsimListeners called.
2018-05-31 18:05:38,596  INFO MobsimListenerManager:49 calling addQueueSimulationListener
2018-05-31 18:05:38,596  INFO MobsimListenerManager:53   assigned class org.matsim.core.mobsim.framework.listeners.MobsimListener to interface org.matsim.core.mobsim.framework.listeners.MobsimAfterSimStepListener
2018-05-31 18:05:38,597  INFO MobsimListenerManager:53   assigned class org.matsim.core.mobsim.framework.listeners.MobsimListener to interface org.matsim.core.mobsim.framework.listeners.MobsimListener
2018-05-31 18:05:38,597  INFO MobsimListenerManager:53   assigned class org.matsim.core.mobsim.framework.listeners.MobsimListener to interface org.matsim.vis.snapshotwriters.SnapshotWriterManager
2018-05-31 18:05:38,597  INFO MobsimListenerManager:53   assigned class org.matsim.core.mobsim.framework.listeners.MobsimListener to interface org.matsim.core.mobsim.framework.listeners.MobsimInitializedListener
2018-05-31 18:05:38,598  INFO MobsimListenerManager:53   assigned class org.matsim.core.mobsim.framework.listeners.MobsimListener to interface org.matsim.core.mobsim.framework.listeners.MobsimBeforeCleanupListener
2018-05-31 18:05:38,598  INFO Injector:80 === printInjector start ===
2018-05-31 18:05:38,598  INFO Injector:84 org.matsim.core.mobsim.qsim.qnetsimengine.VehicularDepartureHandler 
2018-05-31 18:05:38,598  INFO Injector:85   --> provider: Key[type=org.matsim.core.mobsim.qsim.qnetsimengine.QNetsimEngineDepartureHandlerProvider, annotation=[none]][Scopes.SINGLETON]
2018-05-31 18:05:38,599  INFO Injector:86   --> source: org.matsim.core.mobsim.qsim.qnetsimengine.QNetsimEnginePlugin$1.configure(QNetsimEnginePlugin.java:25)
2018-05-31 18:05:38,599  INFO Injector:88   --> scope: eager singleton
2018-05-31 18:05:38,599  INFO Injector:92 
2018-05-31 18:05:38,599  INFO Injector:84 org.matsim.core.mobsim.qsim.agents.AgentFactory 
2018-05-31 18:05:38,599  INFO Injector:85   --> provider: FactoryProxy{key=Key[type=org.matsim.core.mobsim.qsim.agents.AgentFactory, annotation=[none]], provider=com.google.inject.internal.ConstructorBindingImpl$Factory@460dc324}[Scopes.SINGLETON]
2018-05-31 18:05:38,600  INFO Injector:86   --> source: org.matsim.core.mobsim.qsim.PopulationPlugin$1.configure(PopulationPlugin.java:30)
2018-05-31 18:05:38,600  INFO Injector:88   --> scope: eager singleton
2018-05-31 18:05:38,600  INFO Injector:92 
2018-05-31 18:05:38,600  INFO Injector:84 org.matsim.core.mobsim.qsim.interfaces.Netsim 
2018-05-31 18:05:38,600  INFO Injector:85   --> provider: FactoryProxy{key=Key[type=org.matsim.core.mobsim.qsim.interfaces.Netsim, annotation=[none]], provider=com.google.inject.internal.ConstructorBindingImpl$Factory@2ad7ac1a[Scopes.SINGLETON]}
2018-05-31 18:05:38,600  INFO Injector:86   --> source: org.matsim.core.mobsim.qsim.QSimProvider$1.configure(QSimProvider.java:65)
2018-05-31 18:05:38,601  INFO Injector:88   --> scope: Scopes.NO_SCOPE
2018-05-31 18:05:38,601  INFO Injector:92 
2018-05-31 18:05:38,601  INFO Injector:84 org.matsim.core.mobsim.jdeqsim.MessageQueue 
2018-05-31 18:05:38,601  INFO Injector:85   --> provider: com.google.inject.internal.ConstructorBindingImpl$Factory@257d8340[Scopes.SINGLETON]
2018-05-31 18:05:38,601  INFO Injector:86   --> source: org.matsim.core.mobsim.qsim.messagequeueengine.MessageQueuePlugin$1.configure(MessageQueuePlugin.java:24)
2018-05-31 18:05:38,602  INFO Injector:88   --> scope: eager singleton
2018-05-31 18:05:38,602  INFO Injector:92 
2018-05-31 18:05:38,602  INFO Injector:84 org.matsim.core.mobsim.qsim.jdeqsimengine.SteppableScheduler 
2018-05-31 18:05:38,602  INFO Injector:85   --> provider: com.google.inject.internal.ConstructorBindingImpl$Factory@29a1c0b7[Scopes.SINGLETON]
2018-05-31 18:05:38,602  INFO Injector:86   --> source: org.matsim.core.mobsim.qsim.messagequeueengine.MessageQueuePlugin$1.configure(MessageQueuePlugin.java:25)
2018-05-31 18:05:38,602  INFO Injector:88   --> scope: eager singleton
2018-05-31 18:05:38,603  INFO Injector:92 
2018-05-31 18:05:38,603  INFO Injector:84 org.matsim.core.mobsim.qsim.messagequeueengine.MessageQueueEngine 
2018-05-31 18:05:38,603  INFO Injector:85   --> provider: com.google.inject.internal.ConstructorBindingImpl$Factory@15ad8968[Scopes.SINGLETON]
2018-05-31 18:05:38,603  INFO Injector:86   --> source: org.matsim.core.mobsim.qsim.messagequeueengine.MessageQueuePlugin$1.configure(MessageQueuePlugin.java:26)
2018-05-31 18:05:38,603  INFO Injector:88   --> scope: eager singleton
2018-05-31 18:05:38,604  INFO Injector:92 
2018-05-31 18:05:38,604  INFO Injector:84 org.matsim.core.mobsim.qsim.ActivityEngine 
2018-05-31 18:05:38,604  INFO Injector:85   --> provider: com.google.inject.internal.ConstructorBindingImpl$Factory@25db0f54[Scopes.SINGLETON]
2018-05-31 18:05:38,604  INFO Injector:86   --> source: org.matsim.core.mobsim.qsim.ActivityEnginePlugin$1.configure(ActivityEnginePlugin.java:23)
2018-05-31 18:05:38,604  INFO Injector:88   --> scope: eager singleton
2018-05-31 18:05:38,605  INFO Injector:92 
2018-05-31 18:05:38,605  INFO Injector:84 org.matsim.core.mobsim.qsim.qnetsimengine.QNetsimEngine 
2018-05-31 18:05:38,605  INFO Injector:85   --> provider: com.google.inject.internal.ConstructorBindingImpl$Factory@1277c623[Scopes.SINGLETON]
2018-05-31 18:05:38,605  INFO Injector:86   --> source: org.matsim.core.mobsim.qsim.qnetsimengine.QNetsimEnginePlugin$1.configure(QNetsimEnginePlugin.java:24)
2018-05-31 18:05:38,605  INFO Injector:88   --> scope: eager singleton
2018-05-31 18:05:38,605  INFO Injector:92 
2018-05-31 18:05:38,606  INFO Injector:84 org.matsim.core.mobsim.qsim.DefaultTeleportationEngine 
2018-05-31 18:05:38,606  INFO Injector:85   --> provider: com.google.inject.internal.ConstructorBindingImpl$Factory@5813c42a[Scopes.SINGLETON]
2018-05-31 18:05:38,606  INFO Injector:86   --> source: org.matsim.core.mobsim.qsim.TeleportationPlugin$1.configure(TeleportationPlugin.java:21)
2018-05-31 18:05:38,606  INFO Injector:88   --> scope: eager singleton
2018-05-31 18:05:38,606  INFO Injector:92 
2018-05-31 18:05:38,607  INFO Injector:84 org.matsim.core.mobsim.qsim.agents.PopulationAgentSource 
2018-05-31 18:05:38,607  INFO Injector:85   --> provider: com.google.inject.internal.ConstructorBindingImpl$Factory@4c84615a[Scopes.SINGLETON]
2018-05-31 18:05:38,607  INFO Injector:86   --> source: org.matsim.core.mobsim.qsim.PopulationPlugin$1.configure(PopulationPlugin.java:26)
2018-05-31 18:05:38,607  INFO Injector:88   --> scope: eager singleton
2018-05-31 18:05:38,607  INFO Injector:92 
2018-05-31 18:05:38,607  INFO Injector:84 org.matsim.core.mobsim.qsim.QSim 
2018-05-31 18:05:38,608  INFO Injector:85   --> provider: com.google.inject.internal.ConstructorBindingImpl$Factory@2ad7ac1a[Scopes.SINGLETON]
2018-05-31 18:05:38,608  INFO Injector:86   --> source: org.matsim.core.mobsim.qsim.QSimProvider$1.configure(QSimProvider.java:64)
2018-05-31 18:05:38,608  INFO Injector:88   --> scope: eager singleton
2018-05-31 18:05:38,608  INFO Injector:92 
2018-05-31 18:05:38,608  INFO Injector:95 === printInjector end ===
2018-05-31 18:05:38,609  INFO MobsimListenerManager:49 calling addQueueSimulationListener
2018-05-31 18:05:38,609  INFO MobsimListenerManager:53   assigned class org.matsim.core.mobsim.framework.listeners.MobsimListener to interface org.matsim.core.mobsim.framework.listeners.MobsimBeforeSimStepListener
2018-05-31 18:05:38,609  INFO MobsimListenerManager:53   assigned class org.matsim.core.mobsim.framework.listeners.MobsimListener to interface org.matsim.core.mobsim.framework.listeners.MobsimListener
2018-05-31 18:05:38,609  INFO MobsimListenerManager:53   assigned class org.matsim.core.mobsim.framework.listeners.MobsimListener to interface org.matsim.core.mobsim.qsim.messagequeueengine.MessageQueueEngine
2018-05-31 18:05:38,610  INFO QNetsimEngine:504 Assigned 3 nodes and 2 links to QSimEngineRunner #0
2018-05-31 18:05:38,610  INFO EventsManagerImpl:134  event # 1
2018-05-31 18:05:38,610  WARN TeleportationEngineWDistanceCheckTest$1$1:123 	<event time="0.0" type="actend" person="0" link="0-1" actType="dummy"  />
2018-05-31 18:05:38,610  INFO QNetsimEngine:347 SIMULATION (QNetsimEngine) AT 00:00:00 : #links=0 #nodes=1
2018-05-31 18:05:38,611  WARN TeleportationEngineWDistanceCheckTest$1$1:123 	<event time="0.0" type="departure" person="0" link="0-1" legMode="car"  />
2018-05-31 18:05:38,611  INFO QSim:506 SIMULATION (NEW QSim) AT 00:00:00 : #Veh=1 lost=0 simT=0.0s realT=0s; (s/r): 0.0
2018-05-31 18:05:38,611  WARN TeleportationEngineWDistanceCheckTest$1$1:123 	<event time="0.0" type="PersonEntersVehicle" person="0" vehicle="0"  />
2018-05-31 18:05:38,611  INFO Gbl:54 used RAM: 102094616B = 99701kB = 97MB  free: 398076136B = 379MB  total: 500170752B = 477MB
2018-05-31 18:05:38,611  INFO EventsManagerImpl:134  event # 4
2018-05-31 18:05:38,612  WARN TeleportationEngineWDistanceCheckTest$1$1:123 	<event time="0.0" type="vehicle enters traffic" person="0" link="0-1" vehicle="0" networkMode="car" relativePosition="1.0"  />
2018-05-31 18:05:38,612  WARN TeleportationEngineWDistanceCheckTest$1$1:123 	<event time="1.0" type="left link" vehicle="0" link="0-1"  />
2018-05-31 18:05:38,612  WARN TeleportationEngineWDistanceCheckTest$1$1:123 	<event time="1.0" type="entered link" vehicle="0" link="1-2"  />
2018-05-31 18:05:38,921  INFO QNetsimEngine:347 SIMULATION (QNetsimEngine) AT 01:00:00 : #links=1 #nodes=0
2018-05-31 18:05:38,922  INFO QSim:506 SIMULATION (NEW QSim) AT 01:00:00 : #Veh=1 lost=0 simT=3600.0s realT=0s; (s/r): Infinity
2018-05-31 18:05:38,922  INFO Gbl:54 used RAM: 105322376B = 102853kB = 100MB  free: 394848376B = 376MB  total: 500170752B = 477MB
2018-05-31 18:05:39,220  INFO QNetsimEngine:347 SIMULATION (QNetsimEngine) AT 02:00:00 : #links=1 #nodes=0
2018-05-31 18:05:39,220  INFO QSim:506 SIMULATION (NEW QSim) AT 02:00:00 : #Veh=1 lost=0 simT=7200.0s realT=0s; (s/r): Infinity
2018-05-31 18:05:39,220  INFO Gbl:54 used RAM: 105322376B = 102853kB = 100MB  free: 394848376B = 376MB  total: 500170752B = 477MB
2018-05-31 18:05:39,448  WARN TeleportationEngineWDistanceCheckTest$1$1:123 	<event time="10001.0" type="vehicle leaves traffic" person="0" link="1-2" vehicle="0" networkMode="car" relativePosition="1.0"  />
2018-05-31 18:05:39,449  WARN TeleportationEngineWDistanceCheckTest$1$1:123 	<event time="10001.0" type="PersonLeavesVehicle" person="0" vehicle="0"  />
2018-05-31 18:05:39,449  WARN TeleportationEngineWDistanceCheckTest$1$1:123 	<event time="10001.0" type="arrival" person="0" link="1-2" legMode="car"  />
2018-05-31 18:05:39,449  WARN TeleportationEngineWDistanceCheckTest$1$1:123 	<event time="10001.0" type="actstart" person="0" link="1-2" actType="dummy"  />
2018-05-31 18:05:39,450  INFO Gbl:187 Thread performance: Thread=class org.matsim.core.events.SimStepParallelEventsManagerImpl$ProcessEventsRunnable0  cpu-time=0.1946959sec
2018-05-31 18:05:39,450  INFO AbstractController$8:210 ### ITERATION 0 fires after mobsim event
2018-05-31 18:05:39,450  INFO ControlerListenerManagerImpl:248 calling notifyAfterMobsim on org.matsim.analysis.LegTimesControlerListener
2018-05-31 18:05:39,450  INFO LegTimesControlerListener:50 [0] average trip (probably: leg) duration is: 10001 seconds = 02:46:41
2018-05-31 18:05:39,451  INFO ControlerListenerManagerImpl:248 calling notifyAfterMobsim on org.matsim.core.scoring.EventsToActivities$1
2018-05-31 18:05:39,451  INFO ControlerListenerManagerImpl:251 [it.0] all ControlerAfterMobsimListeners called.
2018-05-31 18:05:39,451  INFO AbstractController$4:147 ### ITERATION 0 fires scoring event
2018-05-31 18:05:39,451  INFO ControlerListenerManagerImpl:183 calling notifyScoring on org.matsim.core.scoring.PlansScoringImpl
2018-05-31 18:05:39,452  INFO NewScoreAssignerImpl:36 it: 0 msaStart: null
2018-05-31 18:05:39,452  INFO ControlerListenerManagerImpl:194 [it.0] all ControlerScoringListeners called.
2018-05-31 18:05:39,452  INFO AbstractController$5:155 ### ITERATION 0 fires iteration end event
2018-05-31 18:05:39,452  INFO ControlerListenerManagerImpl:160 calling notifyIterationEnds on org.matsim.core.controler.corelisteners.EventsHandlingImpl
2018-05-31 18:05:39,452  INFO EventsManagerImpl:161 removing Event-Handler: org.matsim.core.events.algorithms.EventWriterXML
2018-05-31 18:05:39,453  INFO EventsManagerImpl:161 removing Event-Handler: org.matsim.core.events.algorithms.EventWriterXML
2018-05-31 18:05:39,453  INFO ControlerListenerManagerImpl:160 calling notifyIterationEnds on org.matsim.core.scoring.PlansScoringImpl
2018-05-31 18:05:39,453  INFO ControlerListenerManagerImpl:167 calling notifyIterationEnds on org.matsim.counts.CountsControlerListener
2018-05-31 18:05:39,453  INFO ControlerListenerManagerImpl:167 calling notifyIterationEnds on org.matsim.analysis.ModeStatsControlerListener
2018-05-31 18:05:39,453  INFO ModeStatsControlerListener:155 -- mode share of mode bike = 0.0
2018-05-31 18:05:39,454  INFO ModeStatsControlerListener:155 -- mode share of mode car = 1.0
2018-05-31 18:05:39,454  INFO ModeStatsControlerListener:155 -- mode share of mode other = 0.0
2018-05-31 18:05:39,454  INFO ModeStatsControlerListener:155 -- mode share of mode pt = 0.0
2018-05-31 18:05:39,454  INFO ModeStatsControlerListener:155 -- mode share of mode ride = 0.0
2018-05-31 18:05:39,454  INFO ModeStatsControlerListener:155 -- mode share of mode walk = 0.0
2018-05-31 18:05:39,454  INFO ControlerListenerManagerImpl:167 calling notifyIterationEnds on org.matsim.analysis.ScoreStatsControlerListener
2018-05-31 18:05:39,455  INFO ScoreStatsControlerListener:191 -- avg. score of the executed plan of each agent: -16.668333333333333
2018-05-31 18:05:39,455  INFO ScoreStatsControlerListener:192 -- avg. score of the worst plan of each agent: -16.668333333333333
2018-05-31 18:05:39,455  INFO ScoreStatsControlerListener:193 -- avg. of the avg. plan score per agent: -16.668333333333333
2018-05-31 18:05:39,455  INFO ScoreStatsControlerListener:194 -- avg. score of the best plan of each agent: -16.668333333333333
2018-05-31 18:05:39,456  INFO ControlerListenerManagerImpl:167 calling notifyIterationEnds on org.matsim.analysis.TravelDistanceStatsControlerListener
2018-05-31 18:05:39,456  INFO TravelDistanceStats:128 [TravelDistanceStats] using 2 thread(s).
2018-05-31 18:05:39,457  INFO TravelDistanceStats:141 [TravelDistanceStats] all threads finished.
2018-05-31 18:05:39,457  INFO TravelDistanceStats:161 -- average of the average leg distance per plan (executed plans only): 10000.0
2018-05-31 18:05:39,457  INFO TravelDistanceStats:162 (TravelDistanceStats takes an average over all legs where the simulation reports travelled distances. These are car legs, pt legs,
2018-05-31 18:05:39,458  INFO TravelDistanceStats:163 (and teleported legs whose route contains a distance.)
2018-05-31 18:05:39,458  INFO ControlerListenerManagerImpl:167 calling notifyIterationEnds on org.matsim.analysis.LegHistogramListener
2018-05-31 18:05:39,459  INFO LegHistogramListener:72 number of legs:	1	100%
2018-05-31 18:05:39,459  INFO LegHistogramListener:79 number of car legs:	1	100.0%
2018-05-31 18:05:39,712  INFO ControlerListenerManagerImpl:167 calling notifyIterationEnds on org.matsim.analysis.LinkStatsControlerListener
2018-05-31 18:05:39,713  INFO ControlerListenerManagerImpl:171 [it.0] all ControlerIterationEndsListeners called.
2018-05-31 18:05:39,855  INFO AbstractController:165 ### ITERATION 0 ENDS
2018-05-31 18:05:39,855  INFO AbstractController:166 ###################################################
2018-05-31 18:05:39,855  INFO MatsimRuntimeModifications:58 S H U T D O W N   ---   start shutdown.
2018-05-31 18:05:39,856  INFO ControlerListenerManagerImpl:121 calling notifyShutdown on org.matsim.core.controler.corelisteners.EventsHandlingImpl
2018-05-31 18:05:39,856  INFO ControlerListenerManagerImpl:121 calling notifyShutdown on org.matsim.core.controler.corelisteners.DumpDataAtEndImpl
2018-05-31 18:05:39,856  INFO Counter:61 [PopulationWriter] dumped person # 1
2018-05-31 18:05:39,856  INFO PopulationWriter:139 Population written to: test/output/org/matsim/core/mobsim/qsim/TeleportationEngineWDistanceCheckTest/test/output_plans.xml.gz
2018-05-31 18:05:39,857  INFO Counter:67 [PopulationWriter] dumped person # 1
2018-05-31 18:05:39,857  INFO NetworkWriter:68 Writing network to file: test/output/org/matsim/core/mobsim/qsim/TeleportationEngineWDistanceCheckTest/test/output_network.xml.gz...
2018-05-31 18:05:39,858  INFO NetworkWriter:71 done.
2018-05-31 18:05:39,858  INFO Config:561 setting context to [file:/root/workspace/matsim-org/matsim/386233578/matsim/]
2018-05-31 18:05:39,863  INFO VehicleWriterV1:55 Vehicles written to: test/output/org/matsim/core/mobsim/qsim/TeleportationEngineWDistanceCheckTest/test/output_vehicles.xml.gz
2018-05-31 18:05:39,864  INFO Counter:67 [HouseholdsWriter] dumped household # 0
2018-05-31 18:05:39,864  INFO LanesWriter:63 Using LaneDefinitionWriter20...
2018-05-31 18:05:39,864  INFO LanesWriter:72 writing to file: test/output/org/matsim/core/mobsim/qsim/TeleportationEngineWDistanceCheckTest/test/output_lanes.xml.gz
2018-05-31 18:05:39,893  INFO ControlerListenerManagerImpl:126 calling notifyShutdown on org.matsim.analysis.ModeStatsControlerListener
2018-05-31 18:05:39,893  INFO ControlerListenerManagerImpl:126 calling notifyShutdown on org.matsim.analysis.ScoreStatsControlerListener
2018-05-31 18:05:39,894  INFO ControlerListenerManagerImpl:126 calling notifyShutdown on org.matsim.analysis.TravelDistanceStatsControlerListener
2018-05-31 18:05:39,894  INFO ControlerListenerManagerImpl:129 all ControlerShutdownListeners called.
2018-05-31 18:05:39,894  INFO MatsimRuntimeModifications:81 S H U T D O W N   ---   shutdown completed.
2018-05-31 18:05:39,894  INFO OutputDirectoryLogging:146 closing the logfile, i.e. messages sent to the logger after this message are not written to the logfile.
